code/logs/opf_case.m
function mpc = /Users/pekap/Desktop/matlab/OOP_grid/logs/opf_case

%% MATPOWER Case Format : Version 2
mpc.version = '2';

%%-----  Power Flow Data  -----%%
%% system MVA base
mpc.baseMVA = 100;

%% bus data
%	bus_i	type	Pd	Qd	Gs	Bs	area	Vm	Va	baseKV	zone	Vmax	Vmin	lam_P	lam_Q	mu_Vmax	mu_Vmin
mpc.bus = [
	1	1	0	0	0	0	1	1.0988371	3.490048	220	1	1.11	0.95	95.3005	0.0000	0.0000	0.0000;
	2	1	0	0	0	0	1	1.1062317	2.2646459	220	1	1.11	0.95	95.3014	0.0000	0.0000	0.0000;
	3	1	0	0	0	0	1	1.0814038	-16.033681	220	1	1.11	0.95	95.3295	0.0000	0.0000	0.0000;
	4	1	0	0	0	0	1	1.0978935	-0.71271615	220	1	1.11	0.95	95.2907	0.0000	0.0000	0.0000;
	5	1	0	0	0	0	1	1.0979028	-0.707192	220	1	1.11	0.95	95.2907	0.0000	0.0000	0.0000;
	6	1	0	0	0	0	1	1.0784645	-9.8749881	220	1	1.11	0.95	95.3062	0.0000	0.0000	0.0000;
	7	1	0	0	0	0	1	1.0785472	-9.8699878	220	1	1.11	0.95	95.3062	0.0000	0.0000	0.0000;
	8	1	0	0	0	-50	1	1.0422298	-7.3795316	400	1	1.05	0.95	95.3090	0.0000	0.0000	0.0000;
	9	1	0	0	0	0	1	1.0422619	-7.3795365	400	1	1.05	0.95	95.3090	0.0000	0.0000	0.0000;
	10	1	0	0	0	0	1	1.0715408	-9.6957624	220	1	1.11	0.95	95.2960	0.0000	0.0000	0.0000;
	11	1	0	0	0	0	1	1.0715132	-9.696671	220	1	1.11	0.95	95.2961	0.0000	0.0000	0.0000;
	12	1	0	0	0	0	1	1.0715104	-9.6898151	220	1	1.11	0.95	95.2961	0.0000	0.0000	0.0000;
	13	1	0	0	0	0	1	1.07149	-9.6964458	220	1	1.11	0.95	95.2962	0.0000	0.0000	0.0000;
	14	1	0	0	0	-50	1	1.0362421	-6.0097713	400	1	1.05	0.95	95.3079	0.0000	0.0000	0.0000;
	15	1	0	0	0	0	1	1.05	-8.9814936	400	1	1.05	0.95	95.3117	0.0000	0.0000	0.0000;
	16	1	0	0	0	0	1	1.075175	-13.823784	220	1	1.11	0.95	95.3298	0.0000	0.0000	0.0000;
	17	1	0	0	0	0	1	1.0751192	-13.824133	220	1	1.11	0.95	95.3298	0.0000	0.0000	0.0000;
	18	1	0	0	0	0	1	1.1006118	0.038550339	220	1	1.11	0.95	95.2905	0.0000	0.0000	0.0000;
	19	1	0	0	0	0	1	1.1006331	0.032802493	220	1	1.11	0.95	95.2905	0.0000	0.0000	0.0000;
	20	1	0	0	0	0	1	1.0821751	-11.138843	220	1	1.11	0.95	95.2654	0.0000	0.0000	0.0000;
	21	1	0	0	0	0	1	1.0689354	-9.7536062	220	1	1.11	0.95	95.2977	0.0000	0.0000	0.0000;
	22	1	0	0	0	0	1	1.1024425	0.49038329	220	1	1.11	0.95	95.2972	0.0000	0.0000	0.0000;
	23	1	0	0	0	-50	1	1.0389197	-9.4057044	400	1	1.05	0.95	95.3177	0.0000	0.0000	0.0000;
	24	2	48.178	65.087	0	0	1	1.1082562	3.9849456	220	1	1.11	0.95	95.3004	0.0000	0.0000	0.0000;
	25	2	28.145	35.087	0	0	1	1.1074115	2.2734133	220	1	1.11	0.95	95.3012	0.0000	0.0000	0.0000;
	26	3	0	0	0	0	1	1.0449384	1.77808	400	1	1.05	0.95	95.3089	0.0000	0.0000	0.0000;
	27	2	44.698	72	0	0	1	1.0449301	1.7876818	400	1	1.05	0.95	95.3089	0.0000	0.0000	0.0000;
	28	1	0	0	0	0	1	1.0766538	-9.9358222	220	1	1.11	0.95	95.2855	0.0000	0.0000	0.0000;
	29	1	0	0	0	0	1	1.0464577	0.86099993	400	1	1.05	0.95	95.3118	0.0000	0.0000	0.0000;
	30	1	0	0	0	0	1	1.0693388	-9.8758312	220	1	1.11	0.95	95.2964	0.0000	0.0000	0.0000;
	31	1	0	0	0	0	1	1.09915	-2.3226823	220	1	1.11	0.95	95.2738	0.0000	0.0000	0.0000;
	32	1	0	0	0	0	1	1.11	-6.363576	220	2	1.11	0.95	95.3064	0.0000	0.0000	0.0000;
	33	1	0	0	0	0	1	1.0805053	-5.9168457	220	2	1.11	0.95	95.3080	0.0000	0.0000	0.0000;
	34	1	0	0	0	0	1	1.0969905	-5.3719109	220	2	1.11	0.95	95.3079	0.0000	0.0000	0.0000;
	35	1	0	0	0	0	1	1.0969464	-5.3725758	220	2	1.11	0.95	95.3079	0.0000	0.0000	0.0000;
	36	1	0	0	0	0	1	1.1002849	-8.2705061	220	2	1.11	0.95	95.3069	0.0000	0.0000	0.0000;
	37	1	0	0	0	0	1	1.1070837	-4.8869786	220	2	1.11	0.95	95.3076	0.0000	0.0000	0.0000;
	38	1	0	0	0	0	1	1.1070251	-4.8883444	220	2	1.11	0.95	95.3076	0.0000	0.0000	0.0000;
	39	1	0	0	0	0	1	1.0389057	-4.9325044	400	2	1.05	0.95	95.3079	0.0000	0.0000	0.0000;
	40	2	13	0	0	0	1	1.0843581	-5.8261069	220	2	1.11	0.95	95.3045	0.0000	0.0000	0.0000;
	41	2	13	0	0	0	1	1.0843882	-5.8153599	220	2	1.11	0.95	95.3045	0.0000	0.0000	0.0000;
	42	2	25	0	0	0	1	1.0495182	-5.6756402	400	2	1.05	0.95	95.3073	0.0000	0.0000	0.0000;
	43	1	0	0	0	0	1	1.0495379	-5.6766086	400	2	1.05	0.95	95.3073	0.0000	0.0000	0.0000;
	44	1	0	0	0	0	1	1.1065925	-5.2586196	220	2	1.11	0.95	95.3075	0.0000	0.0000	0.0000;
	45	1	0	0	0	0	1	1.0387693	-7.9442808	400	2	1.05	0.95	95.3084	0.0000	0.0000	0.0000;
	46	1	0	0	0	0	1	1.0387728	-7.9490407	400	2	1.05	0.95	95.3084	0.0000	0.0000	0.0000;
	47	1	0	0	0	0	1	1.0466528	-5.8362762	400	2	1.05	0.95	95.3072	0.0000	0.0000	0.0000;
	48	1	0	0	0	0	1	1.1003654	-7.7754731	220	2	1.11	0.95	95.3068	0.0000	0.0000	0.0000;
	49	1	0	0	0	0	1	1.1003403	-7.778703	220	2	1.11	0.95	95.3068	0.0000	0.0000	0.0000;
	50	1	67.882	0	0	0	1	1.0477994	-5.7456964	400	2	1.05	0.95	95.3078	0.0000	0.0000	0.0000;
	51	1	0	0	0	0	1	1.0477959	-5.7434519	400	2	1.05	0.95	95.3078	0.0000	0.0000	0.0000;
	52	1	0	0	0	0	1	1.0977199	-4.7599887	220	2	1.11	0.95	95.3081	0.0000	0.0000	0.0000;
	53	2	13	0	0	0	1	1.0976897	-4.7532178	220	2	1.11	0.95	95.3081	0.0000	0.0000	0.0000;
	54	2	13	0	0	0	1	1.045932	-4.980869	400	2	1.05	0.95	95.3082	0.0000	0.0000	0.0000;
	55	2	13	0	0	0	1	1.0459153	-4.985686	400	2	1.05	0.95	95.3082	0.0000	0.0000	0.0000;
	56	2	67.882	25.273	0	0	1	1.0901945	-6.1861548	220	2	1.11	0.95	95.3051	0.0000	0.0000	0.0000;
	57	1	0	0	0	0	1	1.0902606	-6.1850112	220	2	1.11	0.95	95.3051	0.0000	0.0000	0.0000;
	58	1	0	0	0	0	1	1.1032085	-5.3805987	220	2	1.11	0.95	95.3076	0.0000	0.0000	0.0000;
	59	1	0	0	0	0	1	1.0898541	-6.0822865	220	2	1.11	0.95	95.3053	0.0000	0.0000	0.0000;
	60	1	0	0	0	0	1	1.0898184	-6.0844296	220	2	1.11	0.95	95.3053	0.0000	0.0000	0.0000;
	61	1	0	0	0	0	1	1.0375043	-5.9246756	400	2	1.05	0.95	95.3084	0.0000	0.0000	0.0000;
	62	1	0	0	0	0	1	1.037527	-5.9336353	400	2	1.05	0.95	95.3084	0.0000	0.0000	0.0000;
	63	1	0	0	0	0	1	1.1011486	-6.1324319	220	2	1.11	0.95	95.3074	0.0000	0.0000	0.0000;
	64	1	0	0	0	0	1	1.101794	-6.0124469	220	2	1.11	0.95	95.3074	0.0000	0.0000	0.0000;
	65	1	0	0	0	0	1	1.0969502	-7.9061428	220	2	1.11	0.95	95.3069	0.0000	0.0000	0.0000;
	66	1	0	0	0	0	1	1.0999402	-1.3343261	220	3	1.11	0.95	95.3082	0.0000	0.0000	0.0000;
	67	1	0	0	0	0	1	1.0862997	-3.5644559	220	3	1.11	0.95	95.3101	0.0000	0.0000	0.0000;
	68	1	0	0	0	0	1	1.086311	-3.5541431	220	3	1.11	0.95	95.3101	0.0000	0.0000	0.0000;
	69	1	0	0	0	0	1	1.0950289	-2.0180996	220	3	1.11	0.95	95.3112	0.0000	0.0000	0.0000;
	70	1	0	0	0	0	1	1.0950083	-2.0193531	220	3	1.11	0.95	95.3112	0.0000	0.0000	0.0000;
	71	1	137	0	0	0	1	1.0811849	-7.6341892	220	3	1.11	0.95	95.3102	0.0000	0.0000	0.0000;
	72	1	137	0	0	0	1	1.0811784	-7.6364276	220	3	1.11	0.95	95.3102	0.0000	0.0000	0.0000;
	73	2	27	70	0	0	1	1.0878054	-2.855213	220	3	1.11	0.95	95.3100	0.0000	0.0000	0.0000;
	74	2	9	21	0	0	1	1.0882992	-3.5533594	220	3	1.11	0.95	95.3099	0.0000	0.0000	0.0000;
	75	1	4.602	0.91	0	0	1	1.0872711	-3.3042017	220	3	1.11	0.95	95.3106	0.0000	0.0000	0.0000;
	76	1	0	0	0	0	1	1.0872656	-3.3051968	220	3	1.11	0.95	95.3106	0.0000	0.0000	0.0000;
	77	2	206.53	57	0	0	1	1.038756	-0.49869799	400	3	1.05	0.95	95.3256	0.0000	0.0000	0.0000;
	78	1	0	0	0	0	1	1.1078773	-1.8257206	220	3	1.11	0.95	95.3131	0.0000	0.0000	0.0000;
	79	1	0	0	0	0	1	1.0915351	-2.7649339	220	3	1.11	0.95	95.3107	0.0000	0.0000	0.0000;
	80	1	0	0	0	0	1	1.0914976	-2.77119	220	3	1.11	0.95	95.3107	0.0000	0.0000	0.0000;
	81	1	32.969	-8.4	0	0	1	1.1005785	-1.4249499	220	3	1.11	0.95	95.3083	0.0000	0.0000	0.0000;
	82	1	0	0	0	0	1	1.1005774	-1.4285792	220	3	1.11	0.95	95.3083	0.0000	0.0000	0.0000;
	83	1	63.595	0	0	0	1	1.0865034	-2.6240968	220	3	1.11	0.95	95.3101	0.0000	0.0000	0.0000;
	84	1	0	0	0	0	1	1.0864764	-2.6259302	220	3	1.11	0.95	95.3101	0.0000	0.0000	0.0000;
	85	1	0	0	0	0	1	1.100397	-1.0705234	220	3	1.11	0.95	95.3080	0.0000	0.0000	0.0000;
	86	1	0	0	0	0	1	1.1004123	-1.074983	220	3	1.11	0.95	95.3080	0.0000	0.0000	0.0000;
	87	1	0	0	0	0	1	1.0485753	0.23944034	400	3	1.05	0.95	95.3095	0.0000	0.0000	0.0000;
	88	1	0	0	0	0	1	1.0485662	0.23857249	400	3	1.05	0.95	95.3095	0.0000	0.0000	0.0000;
	89	1	0	0	0	0	1	1.089866	-2.4628472	220	3	1.11	0.95	95.3104	0.0000	0.0000	0.0000;
	90	1	0	0	0	0	1	1.0898885	-2.4659581	220	3	1.11	0.95	95.3104	0.0000	0.0000	0.0000;
	91	1	0	0	0	0	1	1.1006195	-1.8020723	220	3	1.11	0.95	95.3123	0.0000	0.0000	0.0000;
	92	1	0	0	0	0	1	1.1006611	-1.8021897	220	3	1.11	0.95	95.3123	0.0000	0.0000	0.0000;
	93	2	9.938	2.19	0	0	1	1.0911223	-3.4485925	220	3	1.11	0.95	95.3095	0.0000	0.0000	0.0000;
	94	1	16.652	3.293	0	0	1	1.0911428	-3.4483043	220	3	1.11	0.95	95.3095	0.0000	0.0000	0.0000;
	95	1	0	0	0	0	1	1.1007054	-5.2382421	220	3	1.11	0.95	95.3089	0.0000	0.0000	0.0000;
	96	1	0	0	0	0	1	1.1007103	-5.2390177	220	3	1.11	0.95	95.3089	0.0000	0.0000	0.0000;
	97	1	0	0	0	0	1	1.0818145	-6.8840801	220	3	1.11	0.95	95.3103	0.0000	0.0000	0.0000;
	98	1	0	0	0	0	1	1.0818182	-6.8711947	220	3	1.11	0.95	95.3103	0.0000	0.0000	0.0000;
	99	2	14	40	0	0	1	1.0923127	-2.5631779	220	3	1.11	0.95	95.3109	0.0000	0.0000	0.0000;
	100	1	0	0	0	0	1	1.0922038	-2.5884874	220	3	1.11	0.95	95.3109	0.0000	0.0000	0.0000;
	101	2	7	18	0	0	1	1.0901045	-2.1822777	220	3	1.11	0.95	95.3101	0.0000	0.0000	0.0000;
	102	1	0	0	0	0	1	1.0900602	-2.1889572	220	3	1.11	0.95	95.3101	0.0000	0.0000	0.0000;
	103	1	27.63	5.872	0	0	1	1.0943977	-3.1837329	220	3	1.11	0.95	95.3090	0.0000	0.0000	0.0000;
	104	1	17.522	3.337	0	0	1	1.0944125	-3.1923759	220	3	1.11	0.95	95.3090	0.0000	0.0000	0.0000;
	105	1	0	0	0	0	1	1.0856816	-4.5686253	220	3	1.11	0.95	95.3098	0.0000	0.0000	0.0000;
	106	1	0	0	0	0	1	1.0876704	-2.9953683	220	3	1.11	0.95	95.3113	0.0000	0.0000	0.0000;
	107	1	0	0	0	0	1	1.0876767	-2.9969091	220	3	1.11	0.95	95.3113	0.0000	0.0000	0.0000;
	108	1	0	0	0	0	1	1.0866617	-3.375319	220	3	1.11	0.95	95.3104	0.0000	0.0000	0.0000;
	109	1	0	0	0	0	1	1.0866683	-3.3714677	220	3	1.11	0.95	95.3104	0.0000	0.0000	0.0000;
	110	1	0	0	0	0	1	1.0366664	-1.7619237	400	3	1.05	0.95	95.3126	0.0000	0.0000	0.0000;
	111	1	0	0	0	0	1	1.089168	-3.3513612	220	3	1.11	0.95	95.3098	0.0000	0.0000	0.0000;
	112	2	8	15	0	0	1	1.0891509	-3.3412226	220	3	1.11	0.95	95.3098	0.0000	0.0000	0.0000;
	113	1	0	0	0	0	1	1.0883397	-4.2048889	220	3	1.11	0.95	95.3098	0.0000	0.0000	0.0000;
	114	1	0	0	0	0	1	1.0883542	-4.204158	220	3	1.11	0.95	95.3098	0.0000	0.0000	0.0000;
	115	1	0	0	0	0	1	1.0470801	-4.9266636	400	3	1.05	0.95	95.3089	0.0000	0.0000	0.0000;
	116	1	0	0	0	0	1	1.0471181	-4.9213167	400	3	1.05	0.95	95.3089	0.0000	0.0000	0.0000;
	117	1	0	0	0	0	1	1.043056	-1.7920037	400	3	1.05	0.95	95.3110	0.0000	0.0000	0.0000;
	118	1	0	0	0	0	1	1.0431047	-1.7908529	400	3	1.05	0.95	95.3110	0.0000	0.0000	0.0000;
	119	1	0	0	0	0	1	1.0851196	-4.6701305	220	3	1.11	0.95	95.3098	0.0000	0.0000	0.0000;
	120	1	2.929	0.867	0	0	1	1.0979375	-1.7777047	220	3	1.11	0.95	95.3119	0.0000	0.0000	0.0000;
	121	2	19.898	27.707	0	0	1	1.0977572	-1.7702446	220	3	1.11	0.95	95.3119	0.0000	0.0000	0.0000;
	122	2	300.678	25.8	0	0	1	1.03145	-1.3636583	400	3	1.05	0.95	95.3146	0.0000	0.0000	0.0000;
	123	1	0	0	0	0	1	1.0313793	-1.366832	400	3	1.05	0.95	95.3146	0.0000	0.0000	0.0000;
	124	1	0	0	0	0	1	1.1004705	-1.5006731	220	3	1.11	0.95	95.3083	0.0000	0.0000	0.0000;
	125	1	0	0	0	0	1	1.1004246	-1.4998941	220	3	1.11	0.95	95.3084	0.0000	0.0000	0.0000;
	126	1	0	0	0	0	1	1.0997933	-1.3466241	220	3	1.11	0.95	95.3083	0.0000	0.0000	0.0000;
	127	1	0.515	1.973	0	0	1	1.1010272	-3.1703145	220	4	1.11	0.95	95.2598	0.0000	0.0000	0.0000;
	128	2	15.242	14.277	0	0	1	1.1010531	-3.1664989	220	4	1.11	0.95	95.2598	0.0000	0.0000	0.0000;
	129	1	0	0	0	0	1	1.1090223	-5.8133353	220	4	1.11	0.95	95.2987	0.0000	0.0000	0.0000;
	130	1	0	0	0	0	1	1.1084034	-5.4962429	220	4	1.11	0.95	95.2914	0.0000	0.0000	0.0000;
	131	1	0	0	0	0	1	1.0335809	-4.3983738	400	4	1.05	0.95	95.3191	0.0000	0.0000	0.0000;
	132	1	0	0	0	0	1	1.0336006	-4.3986502	400	4	1.05	0.95	95.3192	0.0000	0.0000	0.0000;
	133	1	0	0	0	0	1	1.101858	-10.267884	220	4	1.11	0.95	95.0716	0.0000	0.0000	0.0000;
	134	1	0	0	0	0	1	1.0937023	-10.627588	220	4	1.11	0.95	95.1600	0.0000	0.0000	0.0000;
	135	1	0	0	0	0	1	1.102517	-10.912584	220	4	1.11	0.95	95.1760	0.0000	0.0000	0.0000;
	136	1	0	0	0	0	1	1.1064125	-6.0149935	220	4	1.11	0.95	95.3239	0.0000	0.0000	0.0000;
	137	1	7.636	13.257	0	0	1	1.0990818	-5.5672238	220	4	1.11	0.95	95.2361	0.0000	0.0000	0.0000;
	138	1	0	0	0	0	1	1.0991439	-5.565107	220	4	1.11	0.95	95.2370	0.0000	0.0000	0.0000;
	139	2	10.87	14.867	0	0	1	1.0964007	-9.4637382	220	4	1.11	0.95	95.1616	0.0000	0.0000	0.0000;
	140	1	0	0	0	0	1	1.0964815	-9.4743768	220	4	1.11	0.95	95.1615	0.0000	0.0000	0.0000;
	141	2	10.989	15	0	0	1	1.0336749	-11.983481	400	4	1.05	0.95	95.1587	0.0000	0.0000	0.0000;
	142	2	20.672	21.479	0	0	1	1.0336702	-11.980556	400	4	1.05	0.95	95.1586	0.0000	0.0000	0.0000;
	143	1	0	0	0	0	1	1.098391	-10.473143	220	4	1.11	0.95	95.2023	0.0000	0.0000	0.0000;
	144	1	3.13	0	0	0	1	1.1077538	-9.8993754	220	4	1.11	0.95	95.2222	0.0000	0.0000	0.0000;
	145	1	0	0	0	0	1	1.1077553	-9.8948589	220	4	1.11	0.95	95.2222	0.0000	0.0000	0.0000;
	146	2	0	0	0	0	1	1.1054692	-4.4458144	220	4	1.11	0.95	95.2803	0.0000	0.0000	0.0000;
	147	2	13.87	33	0	0	1	1.1054826	-4.4483615	220	4	1.11	0.95	95.2802	0.0000	0.0000	0.0000;
	148	1	0	0	0	0	1	1.0208966	-3.0417684	400	4	1.05	0.95	95.2926	0.0000	0.0000	0.0000;
	149	2	9.989	25	0	0	1	1.0208614	-3.0382384	400	4	1.05	0.95	95.2925	0.0000	0.0000	0.0000;
	150	1	0	0	0	0	1	1.0982403	-10.553221	220	4	1.11	0.95	95.1592	0.0000	0.0000	0.0000;
	151	1	0	0	0	0	1	1.0381031	-4.3129922	400	4	1.05	0.95	95.3822	0.0000	0.0000	0.0000;
	152	1	0	0	0	0	1	1.0380799	-3.6783487	400	4	1.05	0.95	95.3469	0.0000	0.0000	0.0000;
	153	1	0	0	0	0	1	1.0380786	-3.6809577	400	4	1.05	0.95	95.3468	0.0000	0.0000	0.0000;
	154	2	11.664	11	0	0	1	1.1005618	-5.6970728	220	4	1.11	0.95	95.2113	0.0000	0.0000	0.0000;
	155	2	11.564	10.667	0	0	1	1.1005897	-5.7130415	220	4	1.11	0.95	95.2134	0.0000	0.0000	0.0000;
	156	1	0	0	0	0	1	1.1078578	-14.95837	220	4	1.11	0.95	94.9601	0.0000	0.0000	0.0000;
	157	1	31.394	0	0	0	1	1.0930144	-10.729018	220	4	1.11	0.95	95.1599	0.0000	0.0000	0.0000;
	158	1	0	0	0	0	1	1.1079187	-11.260716	220	4	1.11	0.95	95.0961	0.0000	0.0000	0.0000;
	159	1	0	0	0	0	1	1.10792	-11.268326	220	4	1.11	0.95	95.0959	0.0000	0.0000	0.0000;
	160	1	0	0	0	0	1	1.0273607	-11.690148	400	4	1.05	0.95	95.1025	0.0000	0.0000	0.0000;
	161	1	0	0	0	0	1	1.0972304	-8.9003083	220	4	1.11	0.95	95.2365	0.0000	0.0000	0.0000;
	162	1	0	0	0	0	1	1.0972427	-8.8953704	220	4	1.11	0.95	95.2366	0.0000	0.0000	0.0000;
	163	1	0	0	0	0	1	1.0936299	-8.466742	220	4	1.11	0.95	95.1565	0.0000	0.0000	0.0000;
	164	1	0	0	0	0	1	1.1086642	-5.5987655	220	4	1.11	0.95	95.3012	0.0000	0.0000	0.0000;
	165	1	0	0	0	0	1	1.1086718	-5.5937978	220	4	1.11	0.95	95.3012	0.0000	0.0000	0.0000;
	166	1	0	0	0	0	1	1.11	-4.7003492	220	4	1.11	0.95	95.3066	0.0000	0.0000	0.0000;
	167	1	0	0	0	0	1	1.0976593	-9.5443297	220	4	1.11	0.95	95.2395	0.0000	0.0000	0.0000;
	168	1	0	0	0	0	1	1.0906174	-13.177591	220	5	1.11	0.95	95.2872	0.0000	0.0000	0.0000;
	169	1	0	0	0	0	1	1.10155	-18.228194	220	5	1.11	0.95	95.1805	0.0000	0.0000	0.0000;
	170	1	0	0	0	0	1	1.0352196	-17.81291	400	5	1.05	0.95	95.2006	0.0000	0.0000	0.0000;
	171	1	0	0	0	0	1	1.0352336	-17.80441	400	5	1.05	0.95	95.2005	0.0000	0.0000	0.0000;
	172	1	0	0	0	0	1	1.035852	-20.419795	400	5	1.05	0.95	95.2849	0.0000	0.0000	0.0000;
	173	1	0	0	0	0	1	1.0358756	-20.425082	400	5	1.05	0.95	95.2849	0.0000	0.0000	0.0000;
	174	1	0	0	0	0	1	1.1013411	-19.308883	220	5	1.11	0.95	95.2472	0.0000	0.0000	0.0000;
	175	1	0	0	0	0	1	1.1013634	-19.310882	220	5	1.11	0.95	95.2470	0.0000	0.0000	0.0000;
	176	1	0	0	0	0	1	1.0967955	-13.958127	220	5	1.11	0.95	95.3677	0.0000	0.0000	0.0000;
	177	1	0	0	0	0	1	1.0967841	-13.962109	220	5	1.11	0.95	95.3674	0.0000	0.0000	0.0000;
	178	1	0	0	0	0	1	1.0251116	-15.756547	400	5	1.05	0.95	95.3282	0.0000	0.0000	0.0000;
	179	1	0	0	0	0	1	1.0911228	-12.667007	220	5	1.11	0.95	95.2847	0.0000	0.0000	0.0000;
	180	1	0	0	0	0	1	1.091116	-12.662002	220	5	1.11	0.95	95.2849	0.0000	0.0000	0.0000;
	181	1	0	0	0	0	1	1.0431001	-20.218188	400	5	1.05	0.95	95.3009	0.0000	0.0000	0.0000;
	182	1	0	0	0	0	1	1.043097	-20.217661	400	5	1.05	0.95	95.3009	0.0000	0.0000	0.0000;
	183	1	0	0	0	0	1	1.0714251	-17.166354	220	5	1.11	0.95	95.3637	0.0000	0.0000	0.0000;
	184	1	0	0	0	0	1	1.0714109	-17.166244	220	5	1.11	0.95	95.3636	0.0000	0.0000	0.0000;
	185	1	0	0	0	-117	1	1.0269754	-19.712679	400	5	1.05	0.95	95.2291	0.0000	0.0000	0.0000;
	186	1	0	0	0	0	1	1.0270217	-19.704979	400	5	1.05	0.95	95.2290	0.0000	0.0000	0.0000;
	187	1	0	0	0	0	1	1.0846615	-13.727575	220	5	1.11	0.95	95.4736	0.0000	0.0000	0.0000;
	188	1	0	0	0	0	1	1.0846264	-13.723643	220	5	1.11	0.95	95.4738	0.0000	0.0000	0.0000;
	189	1	0	0	0	0	1	1.0779801	-12.175386	220	5	1.11	0.95	95.5045	0.0000	0.0000	0.0000;
	190	1	0	0	0	0	1	1.0779684	-12.184814	220	5	1.11	0.95	95.5050	0.0000	0.0000	0.0000;
	191	2	400	60	0	0	1	1.0319479	-21.561629	400	5	1.05	0.95	95.2672	0.0000	0.0000	0.0000;
	192	1	0	0	0	0	1	1.0319774	-21.557084	400	5	1.05	0.95	95.2673	0.0000	0.0000	0.0000;
	193	1	0	0	0	0	1	1.1045955	-18.762526	220	5	1.11	0.95	95.1541	0.0000	0.0000	0.0000;
	194	1	0	0	0	0	1	1.1045931	-18.765753	220	5	1.11	0.95	95.1545	0.0000	0.0000	0.0000;
	195	1	8.114	2	0	0	1	1.0634391	-12.94254	110	1	1.12	0.95	95.3135	0.0000	0.0000	0.0000;
	196	1	2.705	0.5	0	0	1	1.0595242	-18.523244	110	1	1.12	0.95	95.3301	0.0000	0.0000	0.0000;
	197	1	2.705	2	0	0	1	1.0680045	-11.509535	110	1	1.12	0.95	95.3009	0.0000	0.0000	0.0000;
	198	1	1.623	0.4	0	0	1	1.0563609	1.4177516	110	1	1.12	0.95	95.3011	0.0000	0.0000	0.0000;
	199	2	7.803	8.8	0	0	1	1.0804096	-12.175697	110	1	1.12	0.95	95.3176	0.0000	0.0000	0.0000;
	200	1	4.959	0.5	0	0	1	1.0822197	-12.019107	110	1	1.12	0.95	95.3170	0.0000	0.0000	0.0000;
...
];

%% generator data
%	bus	Pg	Qg	Qmax	Qmin	Vg	mBase	status	Pmax	Pmin	Pc1	Pc2	Qc1min	Qc1max	Qc2min	Qc2max	ramp_agc	ramp_10	ramp_30	ramp_q	apf	mu_Pmax	mu_Pmin	mu_Qmax	mu_Qmin
mpc.gen = [
	24	740	2.61068	190	-19	1.08527	415.9	1	740	290	0	0	0	0	0	0	0	0	0	0	0	19.2004	0.0000	0.0000	0.0000;
	25	360	-19	190	-19	1.08827	407.1	1	360	290	0	0	0	0	0	0	0	0	0	0	0	19.2012	0.0000	0.0000	0.0000;
	26	390.153	-19	190	-19	1.027	415.9	1	390.153	290	0	0	0	0	0	0	0	0	0	0	0	19.2089	0.0000	0.0000	0.0000;
	27	740	-19	190	-19	1.027	415.9	1	740	290	0	0	0	0	0	0	0	0	0	0	0	19.2089	0.0000	0.0000	0.0000;
	40	130	-34	135	-34	1.09086	253.9	1	215	130	0	0	0	0	0	0	0	0	0	0	0	0.0000	6.7455	0.0000	0.0000;
	41	130	-34	145	-34	1.09091	267.7	1	225	130	0	0	0	0	0	0	0	0	0	0	0	0.0000	6.7455	0.0000	0.0000;
	42	255	-47	363	-47	1.04817	646.5	1	535	255	0	0	0	0	0	0	0	0	0	0	0	0.0000	6.7427	0.0000	0.0000;
	53	129	-16	130	-16	1.09126	259.9	1	225	129	0	0	0	0	0	0	0	0	0	0	0	0.0000	10.0419	0.0000	0.0000;
	54	129	-16	130	-16	1.03933	259.9	1	225	129	0	0	0	0	0	0	0	0	0	0	0	0.0000	10.0418	0.0000	0.0000;
	55	129	-16	130	-16	1.03932	259.9	1	225	129	0	0	0	0	0	0	0	0	0	0	0	0.0000	10.0418	0.0000	0.0000;
	56	39.7	0	30	0	1.09864	57.7	1	39.7	39.7	0	0	0	0	0	0	0	0	0	0	0	95.3051	0.0000	0.0000	0.0000;
	73	256.077	21.9558	123	-15	1.06723	256.4	1	450	140	0	0	0	0	0	0	0	0	0	0	0	0.0000	0.0000	0.0000	0.0000;
	74	140	-15	123	-15	1.07077	256.4	1	225	140	0	0	0	0	0	0	0	0	0	0	0	0.0000	0.0001	0.0000	0.0000;
	77	380	-31	232	-31	1.0186	445.2	1	380	220	0	0	0	0	0	0	0	0	0	0	0	5.2956	0.0000	0.0000	0.0000;
	93	14.996	0	1	0	1.07416	12	1	14.996	8.998	0	0	0	0	0	0	0	0	0	0	0	95.3095	0.0000	0.0000	0.0000;
	99	225	78.277	123	-15	1.06927	256.4	1	225	134	0	0	0	0	0	0	0	0	0	0	0	2.5309	0.0000	0.0000	0.0000;
	101	120	3.09041	80	-2	1.06843	144.2	1	120	79	0	0	0	0	0	0	0	0	0	0	0	1.2201	0.0000	0.0000	0.0000;
	112	70	-2	82	-2	1.07082	145.3	1	120	70	0	0	0	0	0	0	0	0	0	0	0	0.0000	1.8102	0.0000	0.0000;
	121	215	-35	135	-35	1.07421	253.9	1	215	160	0	0	0	0	0	0	0	0	0	0	0	4.1519	0.0000	0.0000	0.0000;
	122	225	-40	140	-40	1.01239	265	1	225	140	0	0	0	0	0	0	0	0	0	0	0	4.1546	0.0000	0.0000	0.0000;
	128	120	27.1095	90	0	1.06642	150	1	120	100	0	0	0	0	0	0	0	0	0	0	0	2.8298	0.0000	0.0000	0.0000;
	139	90	-48	149	-48	1.09091	267.4	1	222	90	0	0	0	0	0	0	0	0	0	0	0	0.0000	20.8484	0.0000	0.0000;
	141	90	24.8292	123	-23	1.01688	253.8	1	222	90	0	0	0	0	0	0	0	0	0	0	0	0.0000	20.8513	0.0000	0.0000;
	142	90	-41.4177	149	-48	1.01688	267.4	1	222	90	0	0	0	0	0	0	0	0	0	0	0	0.0000	20.8514	0.0000	0.0000;
	146	94	-53	149	-53	1.08864	278.3	1	239.903	94	0	0	0	0	0	0	0	0	0	0	0	0.0000	3.5597	0.0000	0.0000;
	147	130	-22	117	-22	1.08864	236	1	411	130	0	0	0	0	0	0	0	0	0	0	0	0.0000	3.5598	0.0000	0.0000;
	149	120	-20	109	-20	0.99847	233.1	1	206	120	0	0	0	0	0	0	0	0	0	0	0	0.0000	3.5475	0.0000	0.0000;
	154	200	64.2167	104	-23	1.05768	225.4	1	200	150	0	0	0	0	0	0	0	0	0	0	0	5.9913	0.0000	0.0000	0.0000;
	155	200	75.1437	104	-23	1.05768	225.4	1	200	150	0	0	0	0	0	0	0	0	0	0	0	5.9934	0.0000	0.0000	0.0000;
	191	0	39.4264	80	-30.001	0.98664	196.1	1	0	0	0	0	0	0	0	0	0	0	0	0	0	95.2572	0.0000	0.0000	0.0000;
	199	30	0	20	0	1.09091	58.5	1	30	23	0	0	0	0	0	0	0	0	0	0	0	95.3176	0.0000	0.0000	0.0000;
	216	6.3	4.18608	6	0	1.05704	9.8	1	6.3	6.3	0	0	0	0	0	0	0	0	0	0	0	95.3073	0.0000	0.0000	0.0000;
	222	370	-19	190	-19	1.02878	415.9	1	370	290	0	0	0	0	0	0	0	0	0	0	0	19.2065	0.0000	0.0000	0.0000;
	268	11	7	7	4	1.07912	30.8	1	11	11	0	0	0	0	0	0	0	0	0	0	0	95.2874	0.0000	0.0000	0.0000;
	270	16	11.5985	15	0	1.07487	36.7	1	16	16	0	0	0	0	0	0	0	0	0	0	0	95.2897	0.0000	0.0000	0.0000;
	272	25	5.94042	20	0	1.08518	53.9	1	25	25	0	0	0	0	0	0	0	0	0	0	0	95.2879	0.0000	0.0000	0.0000;
	281	2.5	3	3	0	1.08432	4.1	1	2.5	2.5	0	0	0	0	0	0	0	0	0	0	0	95.2879	0.0000	0.0000	0.0000;
	332	140	-45.4985	138	-47	1.08555	251.3	1	217.61	140	0	0	0	0	0	0	0	0	0	0	0	0.0000	17.4551	0.0000	0.0000;
	333	10	0	10	0	1.06898	19.7	1	17	10	0	0	0	0	0	0	0	0	0	0	0	0.0000	17.4530	0.0000	0.0000;
	383	5.21	0	2	0	1.0809	6.1	1	5.21	5.21	0	0	0	0	0	0	0	0	0	0	0	95.3097	0.0000	0.0000	0.0000;
	440	25	0	14	0	1.06135	53.9	1	25	25	0	0	0	0	0	0	0	0	0	0	0	95.3007	0.0000	0.0000	0.0000;
	441	40	0	17.5	0	1.06273	36.5	1	40	20	0	0	0	0	0	0	0	0	0	0	0	95.2993	0.0000	0.0000	0.0000;
	451	1.4	0.7	0.7	0	1.05556	1.7	1	1.4	1.4	0	0	0	0	0	0	0	0	0	0	0	95.3025	0.0000	0.0000	0.0000;
	458	22.5	2.55494	10	0	1.05752	35.4	1	22.5	22.5	0	0	0	0	0	0	0	0	0	0	0	95.3022	0.0000	0.0000	0.0000;
	459	22.5	0	10	0	1.0595	35.4	1	22.5	22.5	0	0	0	0	0	0	0	0	0	0	0	95.3021	0.0000	0.0000	0.0000;
	467	1	1.23635	4	0	1.07812	8.9	1	1	1	0	0	0	0	0	0	0	0	0	0	0	95.2966	0.0000	0.0000	0.0000;
	512	106	0	30	0	1.09176	97.7	1	106	76	0	0	0	0	0	0	0	0	0	0	0	95.3077	0.0000	0.0000	0.0000;
	545	130	-34	145	-34	1.09108	267.7	1	225	130	0	0	0	0	0	0	0	0	0	0	0	0.0000	6.7452	0.0000	0.0000;
	566	187	0	30	0	1.09115	182.5	1	187	140	0	0	0	0	0	0	0	0	0	0	0	95.3068	0.0000	0.0000	0.0000;
	572	1.98	0	1	0	1.09065	2.7	1	1.98	1.98	0	0	0	0	0	0	0	0	0	0	0	95.3069	0.0000	0.0000	0.0000;
	596	1.32	0	1.3	0	1.08239	10.1	1	1.32	1.32	0	0	0	0	0	0	0	0	0	0	0	95.3081	0.0000	0.0000	0.0000;
	617	129	-16	130	-16	1.09099	259.9	1	225	129	0	0	0	0	0	0	0	0	0	0	0	0.0000	10.0418	0.0000	0.0000;
	640	82	0	30	0	1.06965	105.4	1	82	82	0	0	0	0	0	0	0	0	0	0	0	95.3082	0.0000	0.0000	0.0000;
	669	1	0	0.5	0	1.04724	8.3	1	1	1	0	0	0	0	0	0	0	0	0	0	0	95.3082	0.0000	0.0000	0.0000;
	685	92	0	10	0	1.09118	125.4	1	125	92	0	0	0	0	0	0	0	0	0	0	0	0.0000	16.3225	0.0000	0.0000;
	739	34.99	5.31522	41.2	0	1.08146	87.7	1	34.99	34.99	0	0	0	0	0	0	0	0	0	0	0	95.3103	0.0000	0.0000	0.0000;
	756	44.988	-8.16076	45	-10	1.07665	71.1	1	44.988	44.988	0	0	0	0	0	0	0	0	0	0	0	95.3117	0.0000	0.0000	0.0000;
	812	99.973	8.09625	110	-40	1.08973	162.2	1	99.973	99.973	0	0	0	0	0	0	0	0	0	0	0	95.3105	0.0000	0.0000	0.0000;
	832	386	-32	240	-32	1.09091	454.5	1	386	220	0	0	0	0	0	0	0	0	0	0	0	5.2894	0.0000	0.0000	0.0000;
	837	13.516	1.447	1.447	0	1.08685	7.1	1	13.516	5.998	0	0	0	0	0	0	0	0	0	0	0	95.3113	0.0000	0.0000	0.0000;
	836	3.999	0.447	0.447	0	1.08685	4	1	3.999	3.999	0	0	0	0	0	0	0	0	0	0	0	95.3113	0.0000	0.0000	0.0000;
	844	14.996	0	4.8	0	1.08325	20.6	1	14.996	14.996	0	0	0	0	0	0	0	0	0	0	0	95.3102	0.0000	0.0000	0.0000;
	852	11.997	18	18	9	1.07158	30	1	11.997	11.997	0	0	0	0	0	0	0	0	0	0	0	95.3105	0.0000	0.0000	0.0000;
	906	39.989	7.5	37.5	7.5	1.08691	62.5	1	39.989	39.989	0	0	0	0	0	0	0	0	0	0	0	95.3106	0.0000	0.0000	0.0000;
	941	59.984	15.5493	52.5	0	1.08018	87.5	1	59.984	59.984	0	0	0	0	0	0	0	0	0	0	0	95.3102	0.0000	0.0000	0.0000;
	948	49.986	0	0	0	1.07992	50	1	49.986	49.986	0	0	0	0	0	0	0	0	0	0	0	95.3102	0.0000	0.0000	0.0000;
	995	9.997	0.854507	2	0	1.07484	16.7	1	9.997	9.997	0	0	0	0	0	0	0	0	0	0	0	95.3113	0.0000	0.0000	0.0000;
	1019	230	46.9566	123	-15	1.09091	260.8	1	230	134	0	0	0	0	0	0	0	0	0	0	0	2.5303	0.0000	0.0000	0.0000;
	1061	19.995	0	5	0	1.08438	22.6	1	19.995	19.995	0	0	0	0	0	0	0	0	0	0	0	95.3176	0.0000	0.0000	0.0000;
	1062	24.993	0	5	0	1.0844	32.4	1	24.993	24.993	0	0	0	0	0	0	0	0	0	0	0	95.3176	0.0000	0.0000	0.0000;
	1068	120	9.17613	80	-2	1.08122	144.2	1	120	79	0	0	0	0	0	0	0	0	0	0	0	1.2203	0.0000	0.0000	0.0000;
	1086	79.978	-1.87547	80	-25	1.06873	141.7	1	79.978	79.978	0	0	0	0	0	0	0	0	0	0	0	95.3098	0.0000	0.0000	0.0000;
	1134	19.994	2	2	0	1.07841	12.2	1	19.994	9.997	0	0	0	0	0	0	0	0	0	0	0	95.3112	0.0000	0.0000	0.0000;
	1318	55	23.4855	117	-29	1.08464	192.6	1	153	55	0	0	0	0	0	0	0	0	0	0	0	0.0000	1.8098	0.0000	0.0000;
	1330	80	0	40	0	1.07842	117	1	110	80	0	0	0	0	0	0	0	0	0	0	0	0.0000	4.2102	0.0000	0.0000;
	1331	80	0	40	0	1.07824	117	1	110	80	0	0	0	0	0	0	0	0	0	0	0	0.0000	4.2102	0.0000	0.0000;
	1417	19.995	0	4	0	1.08044	25.3	1	19.995	19.995	0	0	0	0	0	0	0	0	0	0	0	95.3103	0.0000	0.0000	0.0000;
	1418	37.99	14.004	26	13	1.08673	47.7	1	37.99	37.99	0	0	0	0	0	0	0	0	0	0	0	95.3102	0.0000	0.0000	0.0000;
	1452	225	33.9342	140	-35	1.09091	265	1	225	160	0	0	0	0	0	0	0	0	0	0	0	4.1514	0.0000	0.0000	0.0000;
	1454	225	-9.48687	140	-35	1.09091	265	1	225	160	0	0	0	0	0	0	0	0	0	0	0	4.1514	0.0000	0.0000	0.0000;
	1524	120	17.848	90	0	1.08372	150	1	120	100	0	0	0	0	0	0	0	0	0	0	0	2.8562	0.0000	0.0000	0.0000;
	1537	1	0	0	0	1.09236	1.1	1	1	1	0	0	0	0	0	0	0	0	0	0	0	95.2839	0.0000	0.0000	0.0000;
	1540	1	0	0	0	1.0931	1.1	1	1	1	0	0	0	0	0	0	0	0	0	0	0	95.3061	0.0000	0.0000	0.0000;
	1549	0.1	0	0	0	1.09246	0.1	1	0.1	0.1	0	0	0	0	0	0	0	0	0	0	0	95.3066	0.0000	0.0000	0.0000;
	1550	15	-0.001	15	-0.001	1.08543	52.2	1	15	15	0	0	0	0	0	0	0	0	0	0	0	95.3366	0.0000	0.0000	0.0000;
	1573	90	-16.2802	149	-48	1.09091	267.4	1	222	90	0	0	0	0	0	0	0	0	0	0	0	0.0000	20.8480	0.0000	0.0000;
	1577	111	0	15	0	1.07352	57	1	111	31	0	0	0	0	0	0	0	0	0	0	0	94.9926	0.0000	0.0000	0.0000;
	1586	20	0	12	0	1.08218	55.8	1	20	20	0	0	0	0	0	0	0	0	0	0	0	95.1637	0.0000	0.0000	0.0000;
	1605	90	23.7776	90	0	1.08064	150	1	120	90	0	0	0	0	0	0	0	0	0	0	0	0.0000	1.0906	0.0000	0.0000;
	1608	0.1	0	0	0	1.09431	0.1	1	0.1	0.1	0	0	0	0	0	0	0	0	0	0	0	95.3017	0.0000	0.0000	0.0000;
	1620	2	2	2	0	1.07503	4.5	1	2	2	0	0	0	0	0	0	0	0	0	0	0	95.3036	0.0000	0.0000	0.0000;
	1623	0.2	0	0	0	1.09255	0.2	1	0.2	0.2	0	0	0	0	0	0	0	0	0	0	0	95.3053	0.0000	0.0000	0.0000;
	1636	30	3.19688	12	0	1.08055	51.4	1	50	30	0	0	0	0	0	0	0	0	0	0	0	0.0000	1.0858	0.0000	0.0000;
	1637	28	0	10	0	1.09082	29.7	1	28	20	0	0	0	0	0	0	0	0	0	0	0	1.0020	0.0000	0.0000	0.0000;
	1639	30	0	12	0	1.00467	56.3	1	55	30	0	0	0	0	0	0	0	0	0	0	0	0.0000	0.4317	0.0000	0.0000;
	1658	3	0	0	0	1.06289	3.3	1	3	3	0	0	0	0	0	0	0	0	0	0	0	95.1754	0.0000	0.0000	0.0000;
	1669	1	0	0	0	1.09277	1.1	1	1	1	0	0	0	0	0	0	0	0	0	0	0	95.2837	0.0000	0.0000	0.0000;
	1715	200	-15.2147	104	-23	1.09091	225.4	1	200	150	0	0	0	0	0	0	0	0	0	0	0	4.5891	0.0000	0.0000	0.0000;
	1716	197.869	20.5641	111	-18	1.09091	228.7	1	200	150	0	0	0	0	0	0	0	0	0	0	0	0.0000	0.0000	0.0000	0.0000;
	1726	0.4	0	0	0	1.05507	0.4	1	0.4	0.4	0	0	0	0	0	0	0	0	0	0	0	94.8292	0.0000	0.0000	0.0000;
	1744	40	9.43289	15	0	1.07949	66.7	1	40	40	0	0	0	0	0	0	0	0	0	0	0	95.1584	0.0000	0.0000	0.0000;
	1755	1.5	0	0	0	1.08834	1.7	1	1.5	1.5	0	0	0	0	0	0	0	0	0	0	0	95.3393	0.0000	0.0000	0.0000;
	1762	4	0	0	0	1.08284	4.4	1	4	4	0	0	0	0	0	0	0	0	0	0	0	95.1565	0.0000	0.0000	0.0000;
	1774	0.2	0	0	0	1.08079	0.2	1	0.2	0.2	0	0	0	0	0	0	0	0	0	0	0	95.1380	0.0000	0.0000	0.0000;
	1799	2	1.67792	2	0	1.07951	4.5	1	2	2	0	0	0	0	0	0	0	0	0	0	0	95.1589	0.0000	0.0000	0.0000;
	1809	94	21.3438	149	-53	1.09091	278.3	1	235	94	0	0	0	0	0	0	0	0	0	0	0	0.0000	3.5578	0.0000	0.0000;
	1816	62.5	0.0244651	80	0	1.0911	128.1	1	62.5	62.5	0	0	0	0	0	0	0	0	0	0	0	95.3476	0.0000	0.0000	0.0000;
	1821	2.5	0	0	0	1.08903	2.8	1	2.5	2.5	0	0	0	0	0	0	0	0	0	0	0	95.3328	0.0000	0.0000	0.0000;
	1824	0.2	0	0	0	1.0828	0.2	1	0.2	0.2	0	0	0	0	0	0	0	0	0	0	0	95.3365	0.0000	0.0000	0.0000;
	1866	3	-0.001	10	-0.001	1.09105	14.5	1	3	3	0	0	0	0	0	0	0	0	0	0	0	95.2131	0.0000	0.0000	0.0000;
	1871	0.5	0	0	0	1.06145	0.6	1	0.5	0.5	0	0	0	0	0	0	0	0	0	0	0	94.9881	0.0000	0.0000	0.0000;
	1878	0.8	1.7	1.7	0	1.03003	1.9	1	0.8	0.8	0	0	0	0	0	0	0	0	0	0	0	95.2811	0.0000	0.0000	0.0000;
	1881	65	15	15	0	1.06756	71.6	1	65	65	0	0	0	0	0	0	0	0	0	0	0	95.2983	0.0000	0.0000	0.0000;
	1883	0	0	0.2	0	1.06055	0.2	1	0	0	0	0	0	0	0	0	0	0	0	0	0	95.1936	0.0000	0.0000	0.0000;
	1888	0.1	0.1	0.1	0	1.0232	0.1	1	0.1	0.1	0	0	0	0	0	0	0	0	0	0	0	95.3178	0.0000	0.0000	0.0000;
	1893	0.3	0	0.1	0	1.05596	0.3	1	0.3	0.3	0	0	0	0	0	0	0	0	0	0	0	95.1914	0.0000	0.0000	0.0000;
	1896	28	5	5	0	1.02609	28.4	1	28	28	0	0	0	0	0	0	0	0	0	0	0	95.2704	0.0000	0.0000	0.0000;
	1903	0.3	0.1	0.1	0	1.04079	0.3	1	0.3	0.3	0	0	0	0	0	0	0	0	0	0	0	95.2303	0.0000	0.0000	0.0000;
	1904	0.3	0	0.1	0	1.0551	0.3	1	0.3	0.3	0	0	0	0	0	0	0	0	0	0	0	95.2018	0.0000	0.0000	0.0000;
	1908	4	0.3	0.3	0	1.05996	4.4	1	4	4	0	0	0	0	0	0	0	0	0	0	0	95.2075	0.0000	0.0000	0.0000;
	1911	12	3	3	0	1.01993	13.5	1	12	12	0	0	0	0	0	0	0	0	0	0	0	95.3122	0.0000	0.0000	0.0000;
	1918	35	5	5	0	1.02983	40.3	1	35	35	0	0	0	0	0	0	0	0	0	0	0	95.2794	0.0000	0.0000	0.0000;
	1938	2.5	1.5	1.5	0	1.06678	3.1	1	2.5	2.5	0	0	0	0	0	0	0	0	0	0	0	95.2974	0.0000	0.0000	0.0000;
	1941	21	19	19	0	1.05685	29.9	1	21	21	0	0	0	0	0	0	0	0	0	0	0	91.7840	0.0000	0.0000	0.0000;
	1955	0.5	0.2	0.2	0	1.06137	0.6	1	0.5	0.5	0	0	0	0	0	0	0	0	0	0	0	95.2004	0.0000	0.0000	0.0000;
	1956	0	0.5	0.5	0	1.06093	0.5	1	0	0	0	0	0	0	0	0	0	0	0	0	0	95.2007	0.0000	0.0000	0.0000;
	1962	37	26	26	0	1.01417	48.3	1	37	37	0	0	0	0	0	0	0	0	0	0	0	95.3624	0.0000	0.0000	0.0000;
	1971	0.2	0.1	0.1	0	1.03318	0.2	1	0.2	0.2	0	0	0	0	0	0	0	0	0	0	0	95.2460	0.0000	0.0000	0.0000;
	1976	0.2	0	0	0	1.03624	0.2	1	0.2	0.2	0	0	0	0	0	0	0	0	0	0	0	95.3374	0.0000	0.0000	0.0000;
	1979	10	12	12	0	1.05334	16.3	1	10	10	0	0	0	0	0	0	0	0	0	0	0	91.7373	0.0000	0.0000	0.0000;
	1981	0.5	0	0.1	0	1.05946	0.6	1	0.5	0.5	0	0	0	0	0	0	0	0	0	0	0	95.1790	0.0000	0.0000	0.0000;
	1986	0	0.8	0.8	0	1.04697	0.8	1	0	0	0	0	0	0	0	0	0	0	0	0	0	90.6080	0.0000	0.0000	0.0000;
	1992	0.5	0	0.1	0	1.05807	0.6	1	0.5	0.5	0	0	0	0	0	0	0	0	0	0	0	95.1928	0.0000	0.0000	0.0000;
	2007	0.2	0.1	0.1	0	1.03891	0.2	1	0.2	0.2	0	0	0	0	0	0	0	0	0	0	0	95.3446	0.0000	0.0000	0.0000;
	2023	0.1	0.1	0.1	0	1.02806	0.1	1	0.1	0.1	0	0	0	0	0	0	0	0	0	0	0	95.3236	0.0000	0.0000	0.0000;
	2026	0.1	0	0	0	1.02823	0.1	1	0.1	0.1	0	0	0	0	0	0	0	0	0	0	0	95.2776	0.0000	0.0000	0.0000;
	2030	10.6	7.9	7.9	0	1.02888	14.1	1	10.6	10.6	0	0	0	0	0	0	0	0	0	0	0	95.2811	0.0000	0.0000	0.0000;
	2031	0.2	0.1	0.1	0	1.01549	0.2	1	0.2	0.2	0	0	0	0	0	0	0	0	0	0	0	95.3339	0.0000	0.0000	0.0000;
	2042	0.7	0	0	0	1.05523	0.8	1	0.7	0.7	0	0	0	0	0	0	0	0	0	0	0	95.2112	0.0000	0.0000	0.0000;
	2049	0.1	0	0	0	1.05409	0.1	1	0.1	0.1	0	0	0	0	0	0	0	0	0	0	0	95.2074	0.0000	0.0000	0.0000;
	2054	1	0.1	0.1	0	1.01265	1.1	1	1	1	0	0	0	0	0	0	0	0	0	0	0	95.2785	0.0000	0.0000	0.0000;
	2062	55	35	35	0	1.04986	69.9	1	55	55	0	0	0	0	0	0	0	0	0	0	0	95.3299	0.0000	0.0000	0.0000;
	2071	2	1	1	0	1.05737	2.4	1	2	2	0	0	0	0	0	0	0	0	0	0	0	95.5853	0.0000	0.0000	0.0000;
	2080	0.1	0.1	0.1	0	1.03146	0.1	1	0.1	0.1	0	0	0	0	0	0	0	0	0	0	0	95.2525	0.0000	0.0000	0.0000;
	2086	50	2.5	2.5	0	1.06405	26.8	1	50	25	0	0	0	0	0	0	0	0	0	0	0	95.9188	0.0000	0.0000	0.0000;
	381	5.8	0	0	0	1.07667	5.8	1	5.8	5.8	0	0	0	0	0	0	0	0	0	0	0	95.3107	0.0000	0.0000	0.0000;
	1673	2.572	0.757	0.757	0.757	1.08261	2.7	1	2.572	2.572	0	0	0	0	0	0	0	0	0	0	0	95.3015	0.0000	0.0000	0.0000;
	1301	2.069	-0.146	-0.146	-0.146	1.07176	2.1	1	2.069	2.069	0	0	0	0	0	0	0	0	0	0	0	95.3090	0.0000	0.0000	0.0000;
	1366	0.6	0.245	0.245	0.245	1.06995	0.6	1	0.6	0.6	0	0	0	0	0	0	0	0	0	0	0	95.3104	0.0000	0.0000	0.0000;
	1481	9.724	3.466	3.466	3.466	1.07795	10.3	1	9.724	9.724	0	0	0	0	0	0	0	0	0	0	0	95.3114	0.0000	0.0000	0.0000;
	1525	0.618	0.129	0.129	0.129	1.08357	0.6	1	0.618	0.618	0	0	0	0	0	0	0	0	0	0	0	95.2860	0.0000	0.0000	0.0000;
	2099	0	0	0	0	1.05455	0	1	0	0	0	0	0	0	0	0	0	0	0	0	0	95.3106	0.0000	0.0000	0.0000;
	2100	173.964	-23.1961	0	-83.616	0.9975	174	1	173.964	173.964	0	0	0	0	0	0	0	0	0	0	0	95.2926	0.0000	0.0000	0.0000;
	2101	183.534	-9.67556	0	-54.19	1.08864	183.5	1	183.534	183.534	0	0	0	0	0	0	0	0	0	0	0	95.1615	0.0000	0.0000	0.0000;
	2102	0	0	0	0	1.02	0	1	0	0	0	0	0	0	0	0	0	0	0	0	0	95.3084	0.0000	0.0000	0.0000;
];

%% branch data
%	fbus	tbus	r	x	b	rateA	rateB	rateC	ratio	angle	status	angmin	angmax	Pf	Qf	Pt	Qt	mu_Sf	mu_St	mu_angmin	mu_angmax
mpc.branch = [
	7	8	0.00064	0.0305	0	400	400	400	1.0435	-0.6	1	-360	360	-103.6697	0.0000	103.6697	0.0000	0.0000	0.0000	0.0000	0.0000;
	24	26	0.00036	0.02519	0	500	500	500	1.0911	0	1	-360	360	140.1395	0.0000	-140.1395	0.0000	0.0000	0.0000	0.0000	0.0000;
	25	27	0.00036	0.02519	0	500	500	500	1.0759	0	1	-360	360	31.2805	0.0000	-31.2805	0.0000	0.0000	0.0000	0.0000	0.0000;
	37	39	0.00034	0.02097	0	500	500	500	1.0793	0	1	-360	360	3.5107	0.0000	-3.5107	0.0000	0.0000	0.0000	0.0000	0.0000;
	40	43	0.00034	0.02097	0	500	500	500	1.0296	0	1	-360	360	-12.0850	0.0000	12.0850	0.0000	0.0000	0.0000	0.0000	0.0000;
	52	54	0.00081	0.03	0	400	400	400	1.0501	0	1	-360	360	12.2372	0.0000	-12.2372	0.0000	0.0000	0.0000	0.0000	0.0000;
	85	87	0.00075	0.02444	-0.00832	330	330	330	1.0474	0	1	-360	360	-89.3147	0.0000	89.3147	0.0000	0.0000	0.0000	0.0000	0.0000;
	86	88	0.00075	0.02469	-0.008	330	330	330	1.0445	0	1	-360	360	-88.8989	0.0000	88.8989	0.0000	0.0000	0.0000	0.0000	0.0000;
	120	123	0.0005	0.02875	-0.016	400	400	400	1.1172	0	1	-360	360	-22.3263	0.0000	22.3263	0.0000	0.0000	0.0000	0.0000	0.0000;
	140	141	0.00064	0.0305	0	400	400	400	1.077	0	1	-360	360	133.3155	0.0000	-133.3155	0.0000	0.0000	0.0000	0.0000	0.0000;
	146	148	0.000232	0.023	0	500	500	500	1.0887	0	1	-360	360	-97.8639	0.0000	97.8639	0.0000	0.0000	0.0000	0.0000	0.0000;
	147	149	0.000232	0.023	0	500	500	500	1.0887	0	1	-360	360	-98.2875	0.0000	98.2875	0.0000	0.0000	0.0000	0.0000	0.0000;
	158	160	0.00035	0.02375	0	500	500	500	1.0894	0	1	-360	360	28.9682	0.0000	-28.9682	0.0000	0.0000	0.0000	0.0000	0.0000;
	169	170	0.00059	0.030919	0	400	400	400	1.0584	0	1	-360	360	-22.1487	0.0000	22.1487	0.0000	0.0000	0.0000	0.0000	0.0000;
	176	178	0.0004	0.03	0	500	500	500	1.0855	3.6	1	-360	360	-96.5562	0.0000	96.5562	0.0000	0.0000	0.0000	0.0000	0.0000;
	2100	148	0.00031	0.00338	0.0992	1386	1386	1386	0	0	1	-360	360	87.8934	0.0000	-87.8934	0.0000	0.0000	0.0000	0.0000	0.0000;
	2100	149	0.00031	0.00338	0.0992	1386	1386	1386	0	0	1	-360	360	86.0706	0.0000	-86.0706	0.0000	0.0000	0.0000	0.0000	0.0000;
	2099	71	0.01219	0.070659	0.117418	412	412	412	0	0	1	-360	360	-29.6634	0.0000	29.6634	0.0000	0.0000	0.0000	0.0000	0.0000;
	2099	100	0.011781	0.07087	0.116838	412	412	412	0	0	1	-360	360	-153.8366	0.0000	153.8366	0.0000	0.0000	0.0000	0.0000	0.0000;
	2101	139	0.001651	0.015909	0.046948	316	316	316	0	0	1	-360	360	91.1834	0.0000	-91.1834	0.0000	0.0000	0.0000	0.0000	0.0000;
	2101	140	0.001651	0.015909	0.046948	316	316	316	0	0	1	-360	360	92.3506	0.0000	-92.3506	0.0000	0.0000	0.0000	0.0000	0.0000;
	2102	45	0.00188	0.02287	0.6432	831	831	831	0	0	1	-360	360	-117.7241	0.0000	117.7241	0.0000	0.0000	0.0000	0.0000	0.0000;
	2102	46	0.00188	0.02287	0.6432	831	831	831	0	0	1	-360	360	-117.3609	0.0000	117.3609	0.0000	0.0000	0.0000	0.0000	0.0000;
	40	21	0.01345	0.081141	0.141134	339	339	339	0	0	1	-360	360	84.4798	0.0000	-84.4798	0.0000	0.0000	0.0000	0.0000	0.0000;
	24	85	0.009091	0.062401	0.111417	453	453	453	0	0	1	-360	360	141.3993	0.0000	-141.3993	0.0000	0.0000	0.0000	0.0000	0.0000;
	25	86	0.00868	0.06405	0.096994	427	427	427	0	0	1	-360	360	91.2421	0.0000	-91.2421	0.0000	0.0000	0.0000	0.0000	0.0000;
	137	28	0.016961	0.123659	0.196988	316	316	316	0	0	1	-360	360	61.6586	0.0000	-61.6586	0.0000	0.0000	0.0000	0.0000	0.0000;
	128	31	0.00512	0.02618	0.029621	301	301	301	0	0	1	-360	360	-56.2543	0.0000	56.2543	0.0000	0.0000	0.0000	0.0000	0.0000;
	127	19	0.01068	0.061961	0.094961	385	385	385	0	0	1	-360	360	-90.2260	0.0000	90.2260	0.0000	0.0000	0.0000	0.0000	0.0000;
	154	20	0.014651	0.105891	0.170852	316	316	316	0	0	1	-360	360	89.6930	0.0000	-89.6930	0.0000	0.0000	0.0000	0.0000	0.0000;
	38	104	0.01488	0.08161	0.114805	314	314	314	0	0	1	-360	360	-36.2704	0.0000	36.2704	0.0000	0.0000	0.0000	0.0000	0.0000;
	37	86	0.011159	0.07231	0.103673	324	324	324	0	0	1	-360	360	-92.0092	0.0000	92.0092	0.0000	0.0000	0.0000	0.0000	0.0000;
	166	78	0.005517	0.059484	0.170775	316	316	316	0	0	1	-360	360	-84.3449	0.0000	84.3449	0.0000	0.0000	0.0000	0.0000	0.0000;
	189	155	0.01176	0.068289	0.102802	324	324	324	0	0	1	-360	360	-165.1645	0.0000	165.1645	0.0000	0.0000	0.0000	0.0000	0.0000;
	180	155	0.016818	0.089091	0.129935	358	358	358	0	0	1	-360	360	-136.1330	0.0000	136.1330	0.0000	0.0000	0.0000	0.0000	0.0000;
	179	154	0.013843	0.087025	0.134842	383	383	383	0	0	1	-360	360	-139.7855	0.0000	139.7855	0.0000	0.0000	0.0000	0.0000	0.0000;
	193	156	0.01676	0.097169	0.148685	269	269	269	0	0	1	-360	360	-68.3295	0.0000	68.3295	0.0000	0.0000	0.0000	0.0000	0.0000;
	40	10	0.01269	0.074979	0.130196	351	351	351	0	0	1	-360	360	90.0762	0.0000	-90.0762	0.0000	0.0000	0.0000	0.0000	0.0000;
	184	17	0.014091	0.10413	0.15972	316	316	316	0	0	1	-360	360	-56.0173	0.0000	56.0173	0.0000	0.0000	0.0000	0.0000	0.0000;
	95	52	0.003719	0.0438	0.100962	457	457	457	0	0	1	-360	360	-19.0573	0.0000	19.0573	0.0000	0.0000	0.0000	0.0000	0.0000;
	152	77	0.00194	0.02056	0.51584	1178	1178	1178	0	0	1	-360	360	-269.9191	0.0000	269.9191	0.0000	0.0000	0.0000	0.0000	0.0000;
	42	9	0.0015	0.01506	0.4032	1386	1386	1386	0	0	1	-360	360	197.4675	0.0000	-197.4675	0.0000	0.0000	0.0000	0.0000	0.0000;
	171	141	0.00294	0.03463	0.9216	693	693	693	0	0	1	-360	360	-293.3710	0.0000	293.3710	0.0000	0.0000	0.0000	0.0000	0.0000;
	116	54	0.00169	0.01994	0.50624	831	831	831	0	0	1	-360	360	5.2126	0.0000	-5.2126	0.0000	0.0000	0.0000	0.0000	0.0000;
	27	88	0.00137	0.01625	0.41184	1386	1386	1386	0	0	1	-360	360	166.3819	0.0000	-166.3819	0.0000	0.0000	0.0000	0.0000	0.0000;
	26	118	0.00231	0.02769	0.70144	1386	1386	1386	0	0	1	-360	360	224.9535	0.0000	-224.9535	0.0000	0.0000	0.0000	0.0000	0.0000;
	23	178	0.00207	0.02474	0.664	1386	1386	1386	0	0	1	-360	360	448.0320	0.0000	-448.0320	0.0000	0.0000	0.0000	0.0000	0.0000;
	115	61	0.0015	0.01788	0.4512	831	831	831	0	0	1	-360	360	97.4194	0.0000	-97.4194	0.0000	0.0000	0.0000	0.0000	0.0000;
	77	29	0.00331	0.03425	0.85888	977	977	977	0	0	1	-360	360	-69.2882	0.0000	69.2882	0.0000	0.0000	0.0000	0.0000	0.0000;
	87	26	0.00219	0.02369	0.59584	1178	1178	1178	0	0	1	-360	360	-113.3572	0.0000	113.3572	0.0000	0.0000	0.0000	0.0000	0.0000;
	12	4	0.01674	0.09711	0.144232	427	427	427	0	0	1	-360	360	-161.3427	0.0000	161.3427	0.0000	0.0000	0.0000	0.0000	0.0000;
	28	11	0.0057	0.0407	0.06021	316	316	316	0	0	1	-360	360	-10.2555	0.0000	10.2555	0.0000	0.0000	0.0000	0.0000	0.0000;
	22	4	0.004419	0.032229	0.049852	383	383	383	0	0	1	-360	360	65.1526	0.0000	-65.1526	0.0000	0.0000	0.0000	0.0000	0.0000;
	16	7	0.014591	0.11219	0.165528	383	383	383	0	0	1	-360	360	-61.5088	0.0000	61.5088	0.0000	0.0000	0.0000	0.0000	0.0000;
	20	10	0.01211	0.087419	0.140166	316	316	316	0	0	1	-360	360	-28.8113	0.0000	28.8113	0.0000	0.0000	0.0000	0.0000	0.0000;
	24	5	0.009773	0.050516	0.088959	377	377	377	0	0	1	-360	360	162.1135	0.0000	-162.1135	0.0000	0.0000	0.0000	0.0000	0.0000;
	16	3	0.01068	0.07895	0.245194	274	274	274	0	0	1	-360	360	48.8537	0.0000	-48.8537	0.0000	0.0000	0.0000	0.0000	0.0000;
	24	18	0.0057	0.039521	0.075533	440	440	440	0	0	1	-360	360	174.2810	0.0000	-174.2810	0.0000	0.0000	0.0000	0.0000	0.0000;
	25	19	0.0057	0.039521	0.075533	440	440	440	0	0	1	-360	360	98.9500	0.0000	-98.9500	0.0000	0.0000	0.0000	0.0000	0.0000;
	13	6	0.00525	0.03988	0.061952	316	316	316	0	0	1	-360	360	7.8138	0.0000	-7.8138	0.0000	0.0000	0.0000	0.0000	0.0000;
	13	12	2.1e-05	0.000207	0	316	316	316	0	0	1	-360	360	-55.9070	0.0000	55.9070	0.0000	0.0000	0.0000	0.0000	0.0000;
	30	13	0.00093	0.00651	0.011132	316	316	316	0	0	1	-360	360	-48.0932	0.0000	48.0932	0.0000	0.0000	0.0000	0.0000	0.0000;
	21	11	0.00205	0.01326	0.022429	385	385	385	0	0	1	-360	360	-7.4940	0.0000	7.4940	0.0000	0.0000	0.0000	0.0000	0.0000;
	31	5	0.007831	0.043	0.04962	301	301	301	0	0	1	-360	360	-65.5712	0.0000	65.5712	0.0000	0.0000	0.0000	0.0000	0.0000;
	18	4	0.00293	0.01599	0.024781	324	324	324	0	0	1	-360	360	82.0017	0.0000	-82.0017	0.0000	0.0000	0.0000	0.0000	0.0000;
	24	1	0.00155	0.01169	0.018198	633	633	633	0	0	1	-360	360	73.8887	0.0000	-73.8887	0.0000	0.0000	0.0000	0.0000	0.0000;
	25	2	0.00155	0.01169	0.018198	633	633	633	0	0	1	-360	360	1.3090	0.0000	-1.3090	0.0000	0.0000	0.0000	0.0000	0.0000;
	25	22	0.003841	0.028531	0.045883	392	392	392	0	0	1	-360	360	109.0734	0.0000	-109.0734	0.0000	0.0000	0.0000	0.0000	0.0000;
	23	9	0.00298	0.03418	0.93504	831	831	831	0	0	1	-360	360	-103.4620	0.0000	103.4620	0.0000	0.0000	0.0000	0.0000	0.0000;
	26	23	0.00358	0.04262	1.0944	1386	1386	1386	0	0	1	-360	360	457.9865	0.0000	-457.9865	0.0000	0.0000	0.0000	0.0000	0.0000;
	14	27	0.00336	0.03977	1.02163	1316	1316	1316	0	0	1	-360	360	-342.1957	0.0000	342.1957	0.0000	0.0000	0.0000	0.0000	0.0000;
	8	15	0.00299	0.03675	0.9184	1150	1150	1150	0	0	1	-360	360	76.0803	0.0000	-76.0803	0.0000	0.0000	0.0000	0.0000	0.0000;
	8	14	0.00112	0.01329	0.341248	1150	1150	1150	0	0	1	-360	360	-179.8858	0.0000	179.8858	0.0000	0.0000	0.0000	0.0000	0.0000;
	29	27	0.00075	0.009	0.22848	1150	1150	1150	0	0	1	-360	360	-179.7072	0.0000	179.7072	0.0000	0.0000	0.0000	0.0000	0.0000;
	60	56	0.010479	0.060969	0.092047	269	269	269	0	0	1	-360	360	2.9120	0.0000	-2.9120	0.0000	0.0000	0.0000	0.0000	0.0000;
	58	53	0.00882	0.065641	0.100662	274	274	274	0	0	1	-360	360	-16.6814	0.0000	16.6814	0.0000	0.0000	0.0000	0.0000	0.0000;
	64	32	0.011219	0.065581	0.098349	274	274	274	0	0	1	-360	360	9.3447	0.0000	-9.3447	0.0000	0.0000	0.0000	0.0000	0.0000;
	48	32	0.01163	0.07031	0.105802	341	341	341	0	0	1	-360	360	-35.0480	0.0000	35.0480	0.0000	0.0000	0.0000	0.0000	0.0000;
	56	40	0.00545	0.040211	0.066986	404	404	404	0	0	1	-360	360	-15.6276	0.0000	15.6276	0.0000	0.0000	0.0000	0.0000	0.0000;
	57	41	0.00545	0.040211	0.066986	404	404	404	0	0	1	-360	360	-16.0444	0.0000	16.0444	0.0000	0.0000	0.0000	0.0000	0.0000;
	57	32	0.00837	0.04868	0.073481	379	379	379	0	0	1	-360	360	6.4021	0.0000	-6.4021	0.0000	0.0000	0.0000	0.0000	0.0000;
	65	49	0.003159	0.02076	0.03146	385	385	385	0	0	1	-360	360	-10.7141	0.0000	10.7141	0.0000	0.0000	0.0000	0.0000	0.0000;
	49	36	0.006979	0.051961	0.079666	316	316	316	0	0	1	-360	360	16.5193	0.0000	-16.5193	0.0000	0.0000	0.0000	0.0000	0.0000;
	34	53	0.00374	0.027831	0.042689	274	274	274	0	0	1	-360	360	-38.7993	0.0000	38.7993	0.0000	0.0000	0.0000	0.0000	0.0000;
	35	33	0.00769	0.057271	0.087894	316	316	316	0	0	1	-360	360	16.5866	0.0000	-16.5866	0.0000	0.0000	0.0000	0.0000	0.0000;
	52	35	0.00556	0.04145	0.063598	383	383	383	0	0	1	-360	360	25.7941	0.0000	-25.7941	0.0000	0.0000	0.0000	0.0000	0.0000;
	64	34	0.004521	0.03368	0.051691	392	392	392	0	0	1	-360	360	-33.1932	0.0000	33.1932	0.0000	0.0000	0.0000	0.0000	0.0000;
	64	63	0.00151	0.008781	0.013165	341	341	341	0	0	1	-360	360	23.8485	0.0000	-23.8485	0.0000	0.0000	0.0000	0.0000	0.0000;
	59	40	0.00574	0.042831	0.065727	404	404	404	0	0	1	-360	360	-10.4391	0.0000	10.4391	0.0000	0.0000	0.0000	0.0000	0.0000;
	60	41	0.00707	0.045409	0.069309	314	314	314	0	0	1	-360	360	-10.3419	0.0000	10.3419	0.0000	0.0000	0.0000	0.0000	0.0000;
	59	37	0.01213	0.062151	0.093712	314	314	314	0	0	1	-360	360	-33.5667	0.0000	33.5667	0.0000	0.0000	0.0000	0.0000	0.0000;
	58	38	0.002479	0.017979	0.027588	316	316	316	0	0	1	-360	360	-47.7861	0.0000	47.7861	0.0000	0.0000	0.0000	0.0000	0.0000;
	44	37	0.002401	0.01494	0.022525	341	341	341	0	0	1	-360	360	-43.4161	0.0000	43.4161	0.0000	0.0000	0.0000	0.0000	0.0000;
	47	43	0.00167	0.0189	0.54176	1150	1150	1150	0	0	1	-360	360	-14.7446	0.0000	14.7446	0.0000	0.0000	0.0000	0.0000	0.0000;
	55	51	0.00109	0.01277	0.34176	1150	1150	1150	0	0	1	-360	360	103.5670	0.0000	-103.5670	0.0000	0.0000	0.0000	0.0000	0.0000;
	39	55	0.002259	0.026439	0.70784	1150	1150	1150	0	0	1	-360	360	3.5107	0.0000	-3.5107	0.0000	0.0000	0.0000	0.0000	0.0000;
	61	55	0.00094	0.01097	0.29376	1393	1393	1393	0	0	1	-360	360	-149.3934	0.0000	149.3934	0.0000	0.0000	0.0000	0.0000	0.0000;
	45	62	0.00113	0.01406	0.37488	1386	1386	1386	0	0	1	-360	360	-249.5902	0.0000	249.5902	0.0000	0.0000	0.0000	0.0000	0.0000;
	50	42	0.00176	0.02144	0.57344	1150	1150	1150	0	0	1	-360	360	-5.7029	0.0000	5.7029	0.0000	0.0000	0.0000	0.0000	0.0000;
	91	120	0.004876	0.033616	0.059609	404	404	404	0	0	1	-360	360	-1.2652	0.0000	1.2652	0.0000	0.0000	0.0000	0.0000	0.0000;
	70	101	0.01093	0.059194	0.08439	246	246	246	0	0	1	-360	360	4.8038	0.0000	-4.8038	0.0000	0.0000	0.0000	0.0000	0.0000;
	101	89	0.001942	0.013926	0.022845	404	404	404	0	0	1	-360	360	35.1634	0.0000	-35.1634	0.0000	0.0000	0.0000	0.0000	0.0000;
	74	80	0.004318	0.029752	0.05264	316	316	316	0	0	1	-360	360	-45.8841	0.0000	45.8841	0.0000	0.0000	0.0000	0.0000	0.0000;
	126	125	0.000661	0.004959	0.007579	379	379	379	0	0	1	-360	360	53.9437	0.0000	-53.9437	0.0000	0.0000	0.0000	0.0000	0.0000;
	102	126	0.005372	0.040393	0.060055	379	379	379	0	0	1	-360	360	-36.3961	0.0000	36.3961	0.0000	0.0000	0.0000	0.0000	0.0000;
	86	126	0.000826	0.005248	0.008683	301	301	301	0	0	1	-360	360	90.3398	0.0000	-90.3398	0.0000	0.0000	0.0000	0.0000	0.0000;
	95	114	0.015888	0.087603	0.116818	314	314	314	0	0	1	-360	360	-20.6022	0.0000	20.6022	0.0000	0.0000	0.0000	0.0000	0.0000;
	76	108	0.002169	0.014587	0.025749	269	269	269	0	0	1	-360	360	8.3901	0.0000	-8.3901	0.0000	0.0000	0.0000	0.0000	0.0000;
	111	96	0.017727	0.116777	0.163611	246	246	246	0	0	1	-360	360	28.2126	0.0000	-28.2126	0.0000	0.0000	0.0000	0.0000	0.0000;
	121	69	0.00593	0.04093	0.072145	404	404	404	0	0	1	-360	360	10.5690	0.0000	-10.5690	0.0000	0.0000	0.0000	0.0000	0.0000;
	103	85	0.003905	0.028471	0.044983	383	383	383	0	0	1	-360	360	-129.5440	0.0000	129.5440	0.0000	0.0000	0.0000	0.0000	0.0000;
	113	74	0.008161	0.042417	0.061197	356	356	356	0	0	1	-360	360	-26.8084	0.0000	26.8084	0.0000	0.0000	0.0000	0.0000	0.0000;
	114	73	0.008161	0.042417	0.061197	356	356	356	0	0	1	-360	360	-55.5049	0.0000	55.5049	0.0000	0.0000	0.0000	0.0000	0.0000;
	74	71	0.005186	0.038388	0.058748	453	453	453	0	0	1	-360	360	185.5369	0.0000	-185.5369	0.0000	0.0000	0.0000	0.0000	0.0000;
	73	68	0.002128	0.014029	0.022603	301	301	301	0	0	1	-360	360	86.9530	0.0000	-86.9530	0.0000	0.0000	0.0000	0.0000	0.0000;
	109	73	0.004628	0.027748	0.046115	324	324	324	0	0	1	-360	360	-32.4721	0.0000	32.4721	0.0000	0.0000	0.0000	0.0000	0.0000;
	98	67	0.011219	0.070744	0.115705	246	246	246	0	0	1	-360	360	-81.5807	0.0000	81.5807	0.0000	0.0000	0.0000	0.0000	0.0000;
	105	112	0.006012	0.041467	0.073636	383	383	383	0	0	1	-360	360	-51.6609	0.0000	51.6609	0.0000	0.0000	0.0000	0.0000	0.0000;
	86	66	0.002066	0.012789	0.020551	269	269	269	0	0	1	-360	360	35.3928	0.0000	-35.3928	0.0000	0.0000	0.0000	0.0000	0.0000;
	81	85	0.001364	0.009731	0.016243	453	453	453	0	0	1	-360	360	-63.5691	0.0000	63.5691	0.0000	0.0000	0.0000	0.0000	0.0000;
	124	82	0.000579	0.004112	0.007008	404	404	404	0	0	1	-360	360	-30.6001	0.0000	30.6001	0.0000	0.0000	0.0000	0.0000	0.0000;
	97	72	0.001591	0.011116	0.019128	453	453	453	0	0	1	-360	360	118.1265	0.0000	-118.1265	0.0000	0.0000	0.0000	0.0000	0.0000;
	120	99	0.003141	0.021591	0.038391	404	404	404	0	0	1	-360	360	63.4945	0.0000	-63.4945	0.0000	0.0000	0.0000	0.0000	0.0000;
	121	106	0.004545	0.03157	0.055312	316	316	316	0	0	1	-360	360	67.7303	0.0000	-67.7303	0.0000	0.0000	0.0000	0.0000	0.0000;
	99	79	0.001446	0.009917	0.017598	316	316	316	0	0	1	-360	360	35.5078	0.0000	-35.5078	0.0000	0.0000	0.0000	0.0000	0.0000;
	100	90	0.003822	0.026674	0.046154	316	316	316	0	0	1	-360	360	-8.0173	0.0000	8.0173	0.0000	0.0000	0.0000	0.0000	0.0000;
	107	75	0.007769	0.041281	0.063907	269	269	269	0	0	1	-360	360	12.9921	0.0000	-12.9921	0.0000	0.0000	0.0000	0.0000	0.0000;
	84	73	0.004463	0.030413	0.048671	246	246	246	0	0	1	-360	360	13.1580	0.0000	-13.1580	0.0000	0.0000	0.0000	0.0000	0.0000;
	112	103	0.005888	0.035062	0.052349	246	246	246	0	0	1	-360	360	-7.8396	0.0000	7.8396	0.0000	0.0000	0.0000	0.0000	0.0000;
	104	94	0.003161	0.023409	0.036165	316	316	316	0	0	1	-360	360	19.0815	0.0000	-19.0815	0.0000	0.0000	0.0000	0.0000	0.0000;
	111	74	0.001839	0.012603	0.022399	316	316	316	0	0	1	-360	360	27.9738	0.0000	-27.9738	0.0000	0.0000	0.0000	0.0000	0.0000;
	102	83	0.001715	0.009607	0.014239	301	301	301	0	0	1	-360	360	79.0530	0.0000	-79.0530	0.0000	0.0000	0.0000	0.0000	0.0000;
	93	74	0.003409	0.024421	0.039969	246	246	246	0	0	1	-360	360	7.4875	0.0000	-7.4875	0.0000	0.0000	0.0000	0.0000	0.0000;
	112	73	0.001839	0.012603	0.02239	316	316	316	0	0	1	-360	360	-67.3051	0.0000	67.3051	0.0000	0.0000	0.0000	0.0000	0.0000;
	78	92	0.005702	0.041488	0.066172	404	404	404	0	0	1	-360	360	-0.9899	0.0000	0.9899	0.0000	0.0000	0.0000	0.0000	0.0000;
	119	113	0.004587	0.024628	0.036165	314	314	314	0	0	1	-360	360	-32.9706	0.0000	32.9706	0.0000	0.0000	0.0000	0.0000	0.0000;
	119	105	0.002149	0.013327	0.022109	246	246	246	0	0	1	-360	360	-13.2933	0.0000	13.2933	0.0000	0.0000	0.0000	0.0000	0.0000;
	88	122	0.002413	0.027544	0.767968	831	831	831	0	0	1	-360	360	101.5256	0.0000	-101.5256	0.0000	0.0000	0.0000	0.0000	0.0000;
	77	122	0.002131	0.024319	0.67744	1386	1386	1386	0	0	1	-360	360	62.0766	0.0000	-62.0766	0.0000	0.0000	0.0000	0.0000	0.0000;
	117	110	0.000913	0.0104	0.289888	1150	1150	1150	0	0	1	-360	360	-5.0480	0.0000	5.0480	0.0000	0.0000	0.0000	0.0000	0.0000;
	118	116	0.003119	0.035631	0.991072	831	831	831	0	0	1	-360	360	153.3409	0.0000	-153.3409	0.0000	0.0000	0.0000	0.0000	0.0000;
	110	123	0.000919	0.010512	0.292928	1150	1150	1150	0	0	1	-360	360	-65.5979	0.0000	65.5979	0.0000	0.0000	0.0000	0.0000	0.0000;
	161	147	0.01545	0.073349	0.126614	427	427	427	0	0	1	-360	360	-105.9335	0.0000	105.9335	0.0000	0.0000	0.0000	0.0000	0.0000;
	162	146	0.01545	0.073349	0.126614	427	427	427	0	0	1	-360	360	-105.8766	0.0000	105.8766	0.0000	0.0000	0.0000	0.0000	0.0000;
	164	146	0.01457	0.07955	0.14007	324	324	324	0	0	1	-360	360	-25.2958	0.0000	25.2958	0.0000	0.0000	0.0000	0.0000	0.0000;
	165	147	0.01457	0.07955	0.14007	324	324	324	0	0	1	-360	360	-25.1309	0.0000	25.1309	0.0000	0.0000	0.0000	0.0000	0.0000;
	164	136	0.006031	0.04401	0.069793	316	316	316	0	0	1	-360	360	16.5066	0.0000	-16.5066	0.0000	0.0000	0.0000	0.0000	0.0000;
	155	133	0.011031	0.08057	0.124127	404	404	404	0	0	1	-360	360	98.6682	0.0000	-98.6682	0.0000	0.0000	0.0000	0.0000	0.0000;
	130	146	0.005831	0.04231	0.070664	383	383	383	0	0	1	-360	360	-43.3312	0.0000	43.3312	0.0000	0.0000	0.0000	0.0000	0.0000;
	159	161	0.01849	0.095599	0.159139	305	305	305	0	0	1	-360	360	-43.2324	0.0000	43.2324	0.0000	0.0000	0.0000	0.0000	0.0000;
	143	162	0.010581	0.053	0.088475	385	385	385	0	0	1	-360	360	-51.9572	0.0000	51.9572	0.0000	0.0000	0.0000	0.0000	0.0000;
	145	147	0.012521	0.091359	0.145394	453	453	453	0	0	1	-360	360	-104.0503	0.0000	104.0503	0.0000	0.0000	0.0000	0.0000	0.0000;
	129	130	0.00506	0.036539	0.063598	305	305	305	0	0	1	-360	360	-15.1463	0.0000	15.1463	0.0000	0.0000	0.0000	0.0000	0.0000;
	139	135	0.01043	0.077891	0.122065	383	383	383	0	0	1	-360	360	32.4648	0.0000	-32.4648	0.0000	0.0000	0.0000	0.0000	0.0000;
	144	167	0.007702	0.056917	0.086733	316	316	316	0	0	1	-360	360	-10.8873	0.0000	10.8873	0.0000	0.0000	0.0000	0.0000	0.0000;
	163	138	0.009147	0.089554	0.215196	246	246	246	0	0	1	-360	360	-56.5503	0.0000	56.5503	0.0000	0.0000	0.0000	0.0000	0.0000;
	158	133	0.00355	0.02593	0.041237	404	404	404	0	0	1	-360	360	-66.8267	0.0000	66.8267	0.0000	0.0000	0.0000	0.0000	0.0000;
	159	156	0.01312	0.076219	0.116644	324	324	324	0	0	1	-360	360	84.4978	0.0000	-84.4978	0.0000	0.0000	0.0000	0.0000	0.0000;
	158	143	0.009341	0.05225	0.087701	305	305	305	0	0	1	-360	360	-26.3076	0.0000	26.3076	0.0000	0.0000	0.0000	0.0000	0.0000;
	137	128	0.006141	0.032521	0.052456	356	356	356	0	0	1	-360	360	-128.8415	0.0000	128.8415	0.0000	0.0000	0.0000	0.0000	0.0000;
	138	127	0.00438	0.03188	0.050723	453	453	453	0	0	1	-360	360	-131.1073	0.0000	131.1073	0.0000	0.0000	0.0000	0.0000	0.0000;
	154	138	0.000479	0.00331	0.005711	404	404	404	0	0	1	-360	360	-69.5842	0.0000	69.5842	0.0000	0.0000	0.0000	0.0000	0.0000;
	155	137	0.000479	0.00331	0.005711	404	404	404	0	0	1	-360	360	-76.8882	0.0000	76.8882	0.0000	0.0000	0.0000	0.0000	0.0000;
	145	135	0.010539	0.076859	0.122355	316	316	316	0	0	1	-360	360	23.1107	0.0000	-23.1107	0.0000	0.0000	0.0000	0.0000	0.0000;
	150	139	0.00469	0.034651	0.053821	383	383	383	0	0	1	-360	360	-54.8759	0.0000	54.8759	0.0000	0.0000	0.0000	0.0000	0.0000;
	140	134	0.006469	0.0413	0.069212	383	383	383	0	0	1	-360	360	48.7344	0.0000	-48.7344	0.0000	0.0000	0.0000	0.0000	0.0000;
	157	134	0.00105	0.007211	0.01028	316	316	316	0	0	1	-360	360	-24.5500	0.0000	24.5500	0.0000	0.0000	0.0000	0.0000	0.0000;
	157	150	0.006099	0.044831	0.070954	316	316	316	0	0	1	-360	360	-6.8440	0.0000	6.8440	0.0000	0.0000	0.0000	0.0000	0.0000;
	164	129	0.002211	0.01655	0.024781	316	316	316	0	0	1	-360	360	22.6281	0.0000	-22.6281	0.0000	0.0000	0.0000	0.0000	0.0000;
	166	165	0.005169	0.036979	0.058951	316	316	316	0	0	1	-360	360	42.1689	0.0000	-42.1689	0.0000	0.0000	0.0000	0.0000	0.0000;
	167	161	0.002401	0.017789	0.027588	381	381	381	0	0	1	-360	360	-63.1868	0.0000	63.1868	0.0000	0.0000	0.0000	0.0000	0.0000;
	148	131	0.00274	0.02696	0.70592	977	977	977	0	0	1	-360	360	87.8236	0.0000	-87.8236	0.0000	0.0000	0.0000	0.0000	0.0000;
	153	132	0.0017	0.01733	0.45632	915	915	915	0	0	1	-360	360	72.2798	0.0000	-72.2798	0.0000	0.0000	0.0000	0.0000	0.0000;
	151	152	0.00136	0.01574	0.433664	1469	1469	1469	0	0	1	-360	360	-70.3724	0.0000	70.3724	0.0000	0.0000	0.0000	0.0000	0.0000;
	160	142	0.00371	0.04326	1.18688	693	693	693	0	0	1	-360	360	11.7165	0.0000	-11.7165	0.0000	0.0000	0.0000	0.0000	0.0000;
	174	179	0.01882	0.137581	0.25381	299	299	299	0	0	1	-360	360	-84.2577	0.0000	84.2577	0.0000	0.0000	0.0000	0.0000	0.0000;
	183	189	0.02756	0.16014	0.242871	269	269	269	0	0	1	-360	360	-54.3954	0.0000	54.3954	0.0000	0.0000	0.0000	0.0000	0.0000;
	175	194	0.01905	0.11132	0.167851	269	269	269	0	0	1	-360	360	-8.5468	0.0000	8.5468	0.0000	0.0000	0.0000	0.0000	0.0000;
	177	180	0.00795	0.05919	0.090798	316	316	316	0	0	1	-360	360	-38.3361	0.0000	38.3361	0.0000	0.0000	0.0000	0.0000	0.0000;
	179	168	0.0018	0.021141	0.051498	633	633	633	0	0	1	-360	360	42.1521	0.0000	-42.1521	0.0000	0.0000	0.0000	0.0000	0.0000;
	188	190	0.00731	0.055789	0.083635	274	274	274	0	0	1	-360	360	-48.1415	0.0000	48.1415	0.0000	0.0000	0.0000	0.0000	0.0000;
	176	187	0.00564	0.041961	0.064372	274	274	274	0	0	1	-360	360	-9.5896	0.0000	9.5896	0.0000	0.0000	0.0000	0.0000	0.0000;
	194	169	0.0057	0.04236	0.129712	366	366	366	0	0	1	-360	360	-22.1487	0.0000	22.1487	0.0000	0.0000	0.0000	0.0000	0.0000;
	186	170	0.00131	0.01548	0.41152	1150	1150	1150	0	0	1	-360	360	-213.3258	0.0000	213.3258	0.0000	0.0000	0.0000	0.0000	0.0000;
	172	178	0.00224	0.02583	0.72352	831	831	831	0	0	1	-360	360	-315.0950	0.0000	315.0950	0.0000	0.0000	0.0000	0.0000	0.0000;
	181	173	0.0021	0.02475	0.65792	1150	1150	1150	0	0	1	-360	360	14.5898	0.0000	-14.5898	0.0000	0.0000	0.0000	0.0000	0.0000;
	191	185	0.0015	0.01768	0.46944	831	831	831	0	0	1	-360	360	-182.5241	0.0000	182.5241	0.0000	0.0000	0.0000	0.0000	0.0000;
	172	191	0.00133	0.01569	0.418208	831	831	831	0	0	1	-360	360	127.0157	0.0000	-127.0157	0.0000	0.0000	0.0000	0.0000	0.0000;
	173	192	0.00133	0.01569	0.418208	831	831	831	0	0	1	-360	360	125.9220	0.0000	-125.9220	0.0000	0.0000	0.0000	0.0000	0.0000;
	339	1	0.00157	0.06612	0	160	160	160	1.008	0	1	-360	360	-73.8887	0.0000	73.8887	0.0000	0.0000	0.0000	0.0000	0.0000;
	340	2	0.00157	0.06612	0	160	160	160	0.9641	0	1	-360	360	-1.3090	0.0000	1.3090	0.0000	0.0000	0.0000	0.0000	0.0000;
	222	221	0.001008	0.047273	0	300	300	300	1	0	1	-360	360	142.2929	0.0000	-142.2929	0.0000	0.0000	0.0000	0.0000	0.0000;
	222	27	0.00079	0.03678	0	426	426	426	1	0	1	-360	360	227.7071	0.0000	-227.7071	0.0000	0.0000	0.0000	0.0000	0.0000;
	224	3	0.001651	0.06736	0	160	160	160	0.9823	0	1	-360	360	-39.5628	0.0000	39.5628	0.0000	0.0000	0.0000	0.0000	0.0000;
	225	3	0.001651	0.06736	0	160	160	160	0.9881	0	1	-360	360	-9.2909	0.0000	9.2909	0.0000	0.0000	0.0000	0.0000	0.0000;
	244	4	0.001651	0.06901	0	160	160	160	1.0185	0	1	-360	360	-32.3887	0.0000	32.3887	0.0000	0.0000	0.0000	0.0000	0.0000;
	245	5	0.001651	0.06901	0	160	160	160	1.013	0	1	-360	360	-49.9652	0.0000	49.9652	0.0000	0.0000	0.0000	0.0000	0.0000;
	298	6	0.001651	0.068599	0	160	160	160	1.0061	0	1	-360	360	-49.9746	0.0000	49.9746	0.0000	0.0000	0.0000	0.0000	0.0000;
	299	9	0.0015	0.06188	0	250	250	250	1.0583	0	1	-360	360	-94.1414	0.0000	94.1414	0.0000	0.0000	0.0000	0.0000	0.0000;
	307	10	0.001651	0.06775	0	160	160	160	1.0069	0	1	-360	360	-53.6040	0.0000	53.6040	0.0000	0.0000	0.0000	0.0000	0.0000;
...
];

%%-----  OPF Data  -----%%
%% area data
%	area	refbus
mpc.areas = [
	1	18;
];

%% generator cost data
%	1	startup	shutdown	n	x1	y1	...	xn	yn
%	2	startup	shutdown	n	c(n-1)	...	c0
mpc.gencost = [
	2	0	0	3	0	76.1	0;
	2	0	0	3	0	76.1	0;
	2	0	0	3	0	76.1	0;
	2	0	0	3	0	76.1	0;
	2	0	0	3	0	102.05	0;
	2	0	0	3	0	102.05	0;
	2	0	0	3	0	102.05	0;
	2	0	0	3	0	105.35	0;
	2	0	0	3	0	105.35	0;
	2	0	0	3	0	105.35	0;
	2	0	0	3	0	0	0;
	2	0	0	3	0	95.31	0;
	2	0	0	3	0	95.31	0;
	2	0	0	3	0	90.03	0;
	2	0	0	3	0	0	0;
	2	0	0	3	0	92.78	0;
	2	0	0	3	0	94.09	0;
	2	0	0	3	0	97.12	0;
	2	0	0	3	0	91.16	0;
	2	0	0	3	0	91.16	0;
	2	0	0	3	0	92.43	0;
	2	0	0	3	0	116.01	0;
	2	0	0	3	0	116.01	0;
	2	0	0	3	0	116.01	0;
	2	0	0	3	0	98.84	0;
	2	0	0	3	0	98.84	0;
	2	0	0	3	0	98.84	0;
	2	0	0	3	0	89.22	0;
	2	0	0	3	0	89.22	0;
	2	0	0	3	0	0.01	0;
	2	0	0	3	0	0	0;
	2	0	0	3	0	0	0;
	2	0	0	3	0	76.1	0;
	2	0	0	3	0	0	0;
	2	0	0	3	0	0	0;
	2	0	0	3	0	0	0;
	2	0	0	3	0	0	0;
	2	0	0	3	0	112.78	0;
	2	0	0	3	0	112.78	0;
	2	0	0	3	0	0	0;
	2	0	0	3	0	0	0;
	2	0	0	3	0	0	0;
	2	0	0	3	0	0	0;
	2	0	0	3	0	0	0;
	2	0	0	3	0	0	0;
	2	0	0	3	0	0	0;
	2	0	0	3	0	0	0;
	2	0	0	3	0	102.05	0;
	2	0	0	3	0	0	0;
	2	0	0	3	0	0	0;
	2	0	0	3	0	0	0;
	2	0	0	3	0	105.35	0;
	2	0	0	3	0	0	0;
	2	0	0	3	0	0	0;
	2	0	0	3	0	111.63	0;
	2	0	0	3	0	0	0;
	2	0	0	3	0	0	0;
	2	0	0	3	0	0	0;
	2	0	0	3	0	90.03	0;
	2	0	0	3	0	0	0;
	2	0	0	3	0	0	0;
	2	0	0	3	0	0	0;
	2	0	0	3	0	0	0;
	2	0	0	3	0	0	0;
	2	0	0	3	0	0	0;
	2	0	0	3	0	0	0;
	2	0	0	3	0	0	0;
	2	0	0	3	0	92.78	0;
	2	0	0	3	0	0	0;
	2	0	0	3	0	0	0;
	2	0	0	3	0	94.09	0;
	2	0	0	3	0	0	0;
	2	0	0	3	0	0	0;
	2	0	0	3	0	97.12	0;
	2	0	0	3	0	99.52	0;
	2	0	0	3	0	99.52	0;
	2	0	0	3	0	0	0;
	2	0	0	3	0	0	0;
	2	0	0	3	0	91.16	0;
	2	0	0	3	0	91.16	0;
	2	0	0	3	0	92.43	0;
	2	0	0	3	0	0	0;
	2	0	0	3	0	0	0;
	2	0	0	3	0	0	0;
	2	0	0	3	0	0	0;
	2	0	0	3	0	116.01	0;
	2	0	0	3	0	0	0;
	2	0	0	3	0	0	0;
	2	0	0	3	0	96.42	0;
	2	0	0	3	0	0	0;
	2	0	0	3	0	0	0;
	2	0	0	3	0	0	0;
	2	0	0	3	0	96.42	0;
	2	0	0	3	0	96.42	0;
	2	0	0	3	0	96.42	0;
	2	0	0	3	0	0	0;
	2	0	0	3	0	0	0;
	2	0	0	3	0	89.22	0;
	2	0	0	3	0	89.22	0;
	2	0	0	3	0	0	0;
	2	0	0	3	0	0	0;
	2	0	0	3	0	0	0;
	2	0	0	3	0	0	0;
	2	0	0	3	0	0	0;
	2	0	0	3	0	0	0;
	2	0	0	3	0	98.84	0;
	2	0	0	3	0	0	0;
	2	0	0	3	0	0	0;
	2	0	0	3	0	0	0;
	2	0	0	3	0	0	0;
	2	0	0	3	0	0	0;
	2	0	0	3	0	0	0;
	2	0	0	3	0	0	0;
	2	0	0	3	0	0	0;
	2	0	0	3	0	0	0;
	2	0	0	3	0	0	0;
	2	0	0	3	0	0	0;
	2	0	0	3	0	0	0;
	2	0	0	3	0	0	0;
	2	0	0	3	0	0	0;
	2	0	0	3	0	0	0;
	2	0	0	3	0	0	0;
	2	0	0	3	0	0	0;
	2	0	0	3	0	0	0;
	2	0	0	3	0	0	0;
	2	0	0	3	0	0	0;
	2	0	0	3	0	0	0;
	2	0	0	3	0	0	0;
	2	0	0	3	0	0	0;
	2	0	0	3	0	0	0;
	2	0	0	3	0	0	0;
	2	0	0	3	0	0	0;
	2	0	0	3	0	0	0;
	2	0	0	3	0	0	0;
	2	0	0	3	0	0	0;
	2	0	0	3	0	0	0;
	2	0	0	3	0	0	0;
	2	0	0	3	0	0	0;
	2	0	0	3	0	0	0;
	2	0	0	3	0	0	0;
	2	0	0	3	0	0	0;
	2	0	0	3	0	0	0;
	2	0	0	3	0	0	0;
	2	0	0	3	0	0	0;
	2	0	0	3	0	0	0;
	2	0	0	3	0	0	0;
	2	0	0	3	0	0	0;
	2	0	0	3	0	0	0;
	2	0	0	3	0	0	0;
	2	0	0	3	0	0	0;
	2	0	0	3	0	0	0;
	2	0	0	3	0	0	0;
	2	0	0	3	0	0	0;
	2	0	0	3	0	0	0;
	2	0	0	3	0	0	0;
];
